geometry optimzed in LAMMPS
_audit_creation_date              2020-11-30 
_audit_creation_method            'lammps2cif' 
_symmetry_space_group_name_H-M    'P1' 
_symmetry_Int_Tables_number       1 
_symmetry_cell_setting            triclinic 
loop_ 
_symmetry_equiv_pos_as_xyz 
  x,y,z 
_cell_length_a                    45.0885124 
_cell_length_b                    44.183755501978574 
_cell_length_c                    45.340736333059624 
_cell_angle_alpha                 92.511781981002 
_cell_angle_beta                  85.22463224185726 
_cell_angle_gamma                 79.66331099084918 
loop_ 
_atom_site_label 
_atom_site_type_symbol 
_atom_site_fract_x 
_atom_site_fract_y 
_atom_site_fract_z 
_atom_site_charge 
O1          O  0.05957460  0.46308825  0.51784057    -0.81600
O2          O  0.44365497  0.50819116  0.46318883    -0.66300
O3          O  0.02717019  0.00284606  0.48873552    -1.12900
C4          C  0.97568384  0.01149905  0.07689296     1.05300
O5          O  0.44097302  0.04689954  0.98948189    -0.79500
O6          O  0.46442231  0.07121879  0.03478360    -0.67100
Ni7        Ni  0.05483998  0.47051728  0.47752249     1.34900
C8          C  0.49160088  0.07522493  0.03136470     0.84000
O9          O  0.49951694  0.50349042  0.43537215    -0.80100
O10         O  0.05043774  0.47810041  0.43674410    -0.90300
C11         C  0.42914416  0.02792342  0.47476785     0.83600
O12         O  0.03332651  0.43728919  0.47552622    -0.68500
O13         O  0.45072749  0.02456299  0.06881231    -0.87800
C14         C  0.00563048  0.43588996  0.47445967     0.84400
C15         C  0.52635519  0.49440409  0.42298123     1.06000
H16         H  0.47182698  0.48935056  0.01628227     0.37800
O17         O  0.47800013  0.50832515  0.01076426    -1.10500
O18         O  0.01505692  0.04831413  0.02179214    -0.67100
Ni19       Ni  0.01815351  0.00427281  0.02357490     1.26300
O20         O  0.48468183  0.46193708  0.47463354    -0.67400
O21         O  0.00246308  0.00780976  0.06405834    -0.79700
C22         C  0.07877125  0.48527562  0.02530357     0.83800
O23         O  0.05729121  0.00418873  0.03568278    -0.66800
Ni24       Ni  0.44604383  0.03598035  0.02902666     1.27400
Ni25       Ni  0.48316587  0.50604788  0.47555691     1.26100
H26         H  0.03353575  0.02170843  0.48312487     0.38300
O27         O  0.03689368  0.47354134  0.28133441    -0.75200
O28         O  0.01456560  0.97555974  0.20086385    -0.75200
O29         O  0.02606311  0.01842098  0.24144890    -0.75300
O30         O  0.02597307  0.42969691  0.24236764    -0.75300
O31         O  0.47506017  0.45298370  0.25775906    -0.75200
O32         O  0.47639951  0.03983300  0.26121574    -0.75200
O33         O  0.46429899  0.99531208  0.22321607    -0.75200
O34         O  0.48809097  0.49617731  0.29685434    -0.75300
Ni35       Ni  0.02753019  0.97400622  0.23976517     1.25400
Ni36       Ni  0.47365526  0.49719195  0.25872444     1.25400
C37         C  0.51632081  0.49114197  0.30051385     0.87000
C38         C  0.48457503  0.99046336  0.20126132     0.86900
C39         C  0.50039233  0.05000877  0.25238911     0.87000
C40         C  0.49905402  0.43340644  0.24839299     0.87100
O41         O  0.25154292  0.47595333  0.44805482    -0.75200
O42         O  0.26883308  0.47771172  0.03345633    -0.75200
O43         O  0.22552954  0.47045307  0.99695844    -0.75300
O44         O  0.30690407  0.48277316  0.98341492    -0.75300
O45         O  0.28538276  0.03342889  0.49500293    -0.75200
O46         O  0.20373018  0.02208974  0.50903238    -0.75200
O47         O  0.25189398  0.02583771  0.04482051    -0.75200
O48         O  0.24153918  0.02703630  0.45871002    -0.75300
Ni49       Ni  0.26682020  0.47485632  0.99004665     1.25400
Ni50       Ni  0.24401246  0.02941947  0.50216142     1.25400
C51         C  0.24337272  0.50094246  0.43476511     0.87000
C52         C  0.26088188  0.50328139  0.04947698     0.86900
C53         C  0.20410453  0.49381692  0.00171747     0.87000
C54         C  0.30014301  0.51016716  0.48326771     0.87100
O55         O  0.99318306  0.29082437  0.46686157    -0.75200
O56         O  0.00413395  0.20577186  0.48478167    -0.75200
O57         O  0.45557344  0.25168150  0.47567650    -0.75300
O58         O  0.04216341  0.24759637  0.47665758    -0.75300
O59         O  0.03896686  0.25961237  0.02112019    -0.75200
O60         O  0.45074337  0.26534067  0.02345831    -0.75200
O61         O  0.49897576  0.22164990  0.03426786    -0.75200
O62         O  0.48973230  0.30644084  0.01643505    -0.75300
Ni63       Ni  0.99883341  0.24786462  0.47420241     1.25400
Ni64       Ni  0.49415745  0.26450593  0.02696094     1.25400
C65         C  0.49056791  0.31326198  0.48761144     0.87000
C66         C  0.49928327  0.20136784  0.51538241     0.86900
C67         C  0.43680215  0.25942142  0.49900036     0.87000
C68         C  0.05346020  0.25461180  0.50070973     0.87100
O69         O  0.44838856  0.25198054  0.24684223    -0.75200
O70         O  0.03256841  0.22293972  0.21763413    -0.75200
O71         O  0.99101169  0.18661512  0.23144798    -0.75300
O72         O  0.99059035  0.27425770  0.23192994    -0.75300
O73         O  0.50593472  0.28573815  0.27459869    -0.75200
O74         O  0.50381727  0.19829583  0.27545963    -0.75200
O75         O  0.04435650  0.22161255  0.26453621    -0.75200
O76         O  0.46380002  0.25145866  0.29238995    -0.75300
Ni77       Ni  0.99029541  0.23053048  0.23012537     1.25400
Ni78       Ni  0.50521656  0.24197952  0.27676480     1.25400
C79         C  0.44271356  0.25485306  0.27502723     0.87000
C80         C  0.05205415  0.22047557  0.23672227     0.86900
C81         C  0.49594810  0.18415212  0.25282623     0.84600
C82         C  0.49840802  0.30059181  0.25176330     0.87100
O83         O  0.31851335  0.23442914  0.26341634    -0.81600
O84         O  0.19172039  0.23008709  0.23712906    -0.66300
O85         O  0.26416264  0.25957606  0.24219834    -1.12900
C86         C  0.22678731  0.29567346  0.33698196     1.05300
O87         O  0.16188231  0.27063656  0.26182617    -0.79500
O88         O  0.19607961  0.31476347  0.26576666    -0.67100
Ni89       Ni  0.30152138  0.23536572  0.22584776     1.34900
C90         C  0.22037981  0.32528516  0.26592940     0.84000
O91         O  0.23675285  0.23426264  0.19759615    -0.80100
O92         O  0.28627872  0.23588365  0.18761194    -0.90300
C93         C  0.16604703  0.24630918  0.24470435     0.83600
O94         O  0.29326659  0.19484324  0.23080606    -0.68500
O95         O  0.20235051  0.30337799  0.32457676    -0.87800
C96         C  0.27005173  0.18551471  0.24194804     0.84400
C97         C  0.25996212  0.23466511  0.17970668     1.06000
H98         H  0.21932162  0.23754131  0.29165216     0.37800
O99         O  0.22009998  0.25547450  0.28038371    -1.10500
O100        O  0.24381683  0.31103259  0.27657251    -0.67100
Ni101      Ni  0.25764239  0.26832259  0.28367344     1.26300
O102        O  0.24469671  0.20321476  0.24837025    -0.67400
O103        O  0.24958221  0.27712012  0.32467030    -0.79700
C104        C  0.31964853  0.25888100  0.27877573     0.83800
O105        O  0.29616236  0.27890853  0.28592121    -0.66800
Ni106      Ni  0.18453513  0.28563425  0.29189499     1.27400
Ni107      Ni  0.22822317  0.24431196  0.23905753     1.26100
H108        H  0.26216477  0.27862371  0.23224634     0.38300
O109        O  0.24697223  0.25909592  0.45277381    -0.75200
O110        O  0.25448080  0.22193932  0.03550714    -0.75200
O111        O  0.21008962  0.23076414  0.99682423    -0.75300
O112        O  0.29701155  0.23331876  0.99265937    -0.75300
O113        O  0.28310546  0.28230025  0.51323046    -0.75200
O114        O  0.19625941  0.27990935  0.51631813    -0.75200
O115        O  0.24327770  0.27206096  0.04919816    -0.75200
O116        O  0.23642078  0.30374498  0.47995584    -0.75300
Ni117      Ni  0.25387741  0.23032808  0.99443759     1.25400
Ni118      Ni  0.23934099  0.28273763  0.51570778     1.25400
C119        C  0.23994808  0.28850410  0.45497213     0.87000
C120        C  0.24939851  0.24391837  0.05566080     0.86900
C121        C  0.19006278  0.25526516  0.00414824     0.87000
C122        C  0.30296438  0.26024730  0.49982076     0.87100
O123        O  0.21815023  0.46869364  0.24086357    -0.75200
O124        O  0.23679890  0.05213127  0.25210295    -0.75200
O125        O  0.23203364  0.00959159  0.20757786    -0.75300
O126        O  0.22389708  0.50971153  0.28665155    -0.75300
O127        O  0.27307114  0.49080469  0.28482348    -0.75200
O128        O  0.28147121  0.99220208  0.20480701    -0.75200
O129        O  0.28669546  0.03517899  0.24846971    -0.75200
O130        O  0.26737908  0.44947521  0.23969135    -0.75300
Ni131      Ni  0.22514182  0.51005848  0.24291548     1.25400
Ni132      Ni  0.28155822  0.99295013  0.24832238     1.25400
C133        C  0.23993787  0.44560165  0.23993925     0.87000
C134        C  0.26389019  0.05730353  0.24990905     0.86900
C135        C  0.25737469  0.00043641  0.19142622     0.87000
C136        C  0.24759113  0.50077163  0.30049862     0.87100
C137        C  0.27204618  0.15234687  0.24651618    -0.06900
C138        C  0.28716406  0.13087346  0.22400363    -0.18000
C139        C  0.28523797  0.09962489  0.22467891     0.10300
C140        C  0.26850050  0.08938209  0.24877064    -0.06800
C141        C  0.25447732  0.11059166  0.27182008    -0.18000
C142        C  0.25642058  0.14177215  0.27118716     0.10400
S143        S  0.30242908  0.07455493  0.19305243    -0.33000
S144        S  0.23891291  0.16674120  0.30277118    -0.33000
H145        H  0.26025619  0.18641401  0.30124144     0.28400
H146        H  0.27874025  0.05785532  0.19222150     0.28400
H147        H  0.29896852  0.13875026  0.20484211     0.19000
H148        H  0.24193846  0.10276748  0.29052693     0.19000
C149        C  0.22199091  0.35542725  0.25420405    -0.06900
C150        C  0.24887029  0.35866345  0.23781764    -0.18000
C151        C  0.25456675  0.38768724  0.23080824     0.10300
C152        C  0.23310665  0.41422726  0.24116686    -0.06800
C153        C  0.20526966  0.41072769  0.25571912    -0.18000
C154        C  0.19938610  0.38165877  0.26210449     0.10400
S155        S  0.28939382  0.39010530  0.20895654    -0.33000
S156        S  0.16420786  0.37990332  0.28331483    -0.33000
H157        H  0.15504503  0.36062071  0.26167380     0.28400
H158        H  0.29836336  0.35842745  0.20106652     0.28400
H159        H  0.26591987  0.33835312  0.23138766     0.19000
H160        H  0.18850891  0.43084317  0.26358786     0.19000
C161        C  0.25562802  0.23510700  0.14816333    -0.06900
C162        C  0.27552759  0.21450297  0.12807429    -0.18000
C163        C  0.27333614  0.21563336  0.09757162     0.10300
C164        C  0.25055872  0.23773283  0.08707090    -0.06800
C165        C  0.22983033  0.25728168  0.10738433    -0.18000
C166        C  0.23233310  0.25655489  0.13767985     0.10400
S167        S  0.30120946  0.18953106  0.07346710    -0.33000
S168        S  0.20642527  0.28515149  0.16139174    -0.33000
H169        H  0.22780362  0.29126098  0.18066820     0.28400
H170        H  0.30749090  0.21205567  0.05411930     0.28400
H171        H  0.29331326  0.19795244  0.13617890     0.19000
H172        H  0.21225729  0.27427446  0.09950196     0.19000
C173        C  0.22820921  0.30697649  0.36758836    -0.06900
C174        C  0.20249199  0.30818469  0.38744248    -0.18000
C175        C  0.20518659  0.30678601  0.41768985     0.10300
C176        C  0.23407434  0.30419987  0.42803070    -0.06800
C177        C  0.25890958  0.30790144  0.40883030    -0.18000
C178        C  0.25610841  0.30989858  0.37847017     0.10400
S179        S  0.17194621  0.30327838  0.44130777    -0.33000
S180        S  0.28841799  0.31440125  0.35371801    -0.33000
H181        H  0.30923498  0.31343884  0.37525661     0.28400
H182        H  0.18093460  0.31693983  0.46684727     0.28400
H183        H  0.18084158  0.30675399  0.37926054     0.19000
H184        H  0.28088201  0.30651164  0.41722956     0.19000
C185        C  0.08370822  0.22002115  0.22755793    -0.06900
C186        C  0.09047695  0.24703314  0.21581411    -0.18000
C187        C  0.11825263  0.25561934  0.21940139     0.10300
C188        C  0.13981613  0.23605293  0.23399926    -0.06800
C189        C  0.13449381  0.20712225  0.24203887    -0.18000
C190        C  0.10637711  0.19904624  0.23929256     0.10400
S191        S  0.12362891  0.29276498  0.20718701    -0.33000
S192        S  0.09950761  0.16341873  0.25406606    -0.33000
H193        H  0.07457351  0.16103609  0.23797605     0.28400
H194        H  0.15534587  0.28693574  0.20587737     0.28400
H195        H  0.07286316  0.26327878  0.20705523     0.19000
H196        H  0.15132319  0.19193543  0.25288323     0.19000
C197        C  0.41104298  0.26184447  0.28676980    -0.06900
C198        C  0.39279501  0.28683593  0.27531251    -0.18000
C199        C  0.36167091  0.28841184  0.27574642     0.10300
C200        C  0.34886231  0.26405013  0.28722119    -0.06800
C201        C  0.36660519  0.24081197  0.30149271    -0.18000
C202        C  0.39764208  0.23984045  0.30193101     0.10400
S203        S  0.34050110  0.31889208  0.25667645    -0.33000
S204        S  0.41953060  0.20759350  0.31801781    -0.33000
H205        H  0.43767183  0.22553223  0.33203888     0.28400
H206        H  0.31726166  0.32675691  0.27985023     0.28400
H207        H  0.40318338  0.30373928  0.26363308     0.19000
H208        H  0.35661189  0.22223777  0.31051410     0.19000
C209        C  0.40260101  0.25938272  0.49833027    -0.06900
C210        C  0.38507714  0.27232922  0.02215619    -0.18000
C211        C  0.35333146  0.27262075  0.02326546     0.10300
C212        C  0.33719216  0.26037546  0.49998227    -0.06800
C213        C  0.35807072  0.24322303  0.47766616    -0.18000
C214        C  0.38992191  0.24221850  0.47679008     0.10400
S215        S  0.33066086  0.29005258  0.05631495    -0.33000
S216        S  0.41313947  0.21713580  0.44817278    -0.33000
H217        H  0.43342938  0.20317116  0.46770191     0.28400
H218        H  0.31113913  0.26855729  0.05747573     0.28400
H219        H  0.39367793  0.28330997  0.04062320     0.19000
H220        H  0.34955728  0.22996418  0.46069122     0.19000
C221        C  0.15608137  0.25422483  0.00369402    -0.06900
C222        C  0.14166220  0.24047507  0.48027709    -0.18000
C223        C  0.11031140  0.23961383  0.47854094     0.10300
C224        C  0.09190511  0.25224730  0.99911843    -0.06800
C225        C  0.10169914  0.27065891  0.02138743    -0.18000
C226        C  0.13280531  0.27186373  0.02384020     0.10400
S227        S  0.09989757  0.21793360  0.44755697    -0.33000
S228        S  0.14126268  0.29563908  0.05415940    -0.33000
H229        H  0.16730457  0.27506195  0.06039306     0.28400
H230        H  0.12844471  0.21185927  0.43120975     0.28400
H231        H  0.15811423  0.22822173  0.46313941     0.19000
H232        H  0.08484520  0.28448483  0.03727219     0.19000
C233        C  0.24578428  0.50157907  0.33498584    -0.06900
C234        C  0.26565290  0.47968348  0.34932150    -0.18000
C235        C  0.26492215  0.47868066  0.38082890     0.10300
C236        C  0.24409244  0.50037009  0.40029545    -0.06800
C237        C  0.23063022  0.02409368  0.39411806    -0.18000
C238        C  0.23104236  0.02553053  0.36256662     0.10400
S239        S  0.29279517  0.44987613  0.39478824    -0.33000
S240        S  0.20556422  0.05689288  0.34898229    -0.33000
H241        H  0.22652831  0.06280087  0.32619440     0.28400
H242        H  0.27088625  0.43396182  0.40723098     0.28400
H243        H  0.28203918  0.46268374  0.33575107     0.19000
H244        H  0.21477961  0.04128246  0.40801925     0.19000
C245        C  0.25839713  0.00057115  0.09199789    -0.06900
C246        C  0.27602677  0.47816501  0.09785815    -0.18000
C247        C  0.27500556  0.47629762  0.12936217     0.10300
C248        C  0.25858154  0.99982926  0.15696789    -0.06800
C249        C  0.23380226  0.01565198  0.14303332    -0.18000
C250        C  0.23345397  0.01624883  0.11157191     0.10400
S251        S  0.29508079  0.44150861  0.14292180    -0.33000
S252        S  0.19973772  0.03689197  0.09777224    -0.33000
H253        H  0.19988459  0.01575371  0.07363344     0.28400
H254        H  0.27230388  0.43951842  0.16552654     0.28400
H255        H  0.28925448  0.45908623  0.08397901     0.19000
H256        H  0.21418410  0.02790332  0.15682440     0.19000
C257        C  0.49884927  0.39935244  0.24824162    -0.06900
C258        C  0.02184855  0.36734591  0.26552218    -0.18000
C259        C  0.02157445  0.33559736  0.26729417     0.10300
C260        C  0.49950687  0.33439210  0.25082638    -0.06800
C261        C  0.47475276  0.35432696  0.24107258    -0.18000
C262        C  0.47416441  0.38624360  0.23958091     0.10400
S263        S  0.05126194  0.31337287  0.28579185    -0.33000
S264        S  0.44155947  0.40863131  0.22531191    -0.33000
H265        H  0.45742797  0.42895955  0.21051030     0.28400
H266        H  0.05620623  0.28791955  0.26511679     0.28400
H267        H  0.03890251  0.37715010  0.27612069     0.19000
H268        H  0.45553168  0.34491611  0.23448766     0.19000
C269        C  0.49957160  0.08431598  0.25284639    -0.06900
C270        C  0.47520122  0.10358812  0.24162910    -0.18000
C271        C  0.47315214  0.13589979  0.24173523     0.10300
C272        C  0.49617143  0.14996968  0.25295280    -0.06800
C273        C  0.02296111  0.11799919  0.26297204    -0.18000
C274        C  0.02515329  0.08565781  0.26195431     0.10400
S275        S  0.43977574  0.15798954  0.22853503    -0.33000
S276        S  0.05848190  0.06329126  0.27492886    -0.33000
H277        H  0.04295128  0.04258876  0.28966210     0.28400
H278        H  0.43707133  0.18284392  0.24966839     0.28400
H279        H  0.45740212  0.09338863  0.23281247     0.19000
H280        H  0.04145691  0.12789288  0.27066707     0.19000
C281        C  0.98773936  0.34424457  0.48107542    -0.06900
C282        C  0.51173412  0.35211011  0.45844610    -0.18000
C283        C  0.51571010  0.38242007  0.45418719     0.10300
C284        C  0.99730726  0.40500155  0.47367147    -0.06800
C285        C  0.97333197  0.39943740  0.49330110    -0.18000
C286        C  0.97567707  0.36801639  0.99225483     0.10400
S287        S  0.54395973  0.38812964  0.42540805    -0.33000
S288        S  0.94334590  0.36386575  0.01691587    -0.33000
H289        H  0.93723032  0.33776341  0.00132931     0.28400
H290        H  0.52878679  0.41733010  0.41861687     0.28400
H291        H  0.52668410  0.33330135  0.44561551     0.19000
H292        H  0.96761708  0.41705644  0.00215538     0.19000
C293        C  0.50443417  0.16830965  0.02010867    -0.06900
C294        C  0.98465132  0.15827968  0.03696220    -0.18000
C295        C  0.98160366  0.12803041  0.04251172     0.10300
C296        C  0.49729142  0.10719108  0.03021872    -0.06800
C297        C  0.51520849  0.11359421  0.51391700    -0.18000
C298        C  0.51914499  0.14364003  0.50824901     0.10400
S299        S  0.95521859  0.12280193  0.07299332    -0.33000
S300        S  0.54992459  0.14787698  0.48166081    -0.33000
H301        H  0.55634111  0.17438696  0.49626755     0.28400
H302        H  0.97514618  0.09772396  0.08267520     0.28400
H303        H  0.96959408  0.17716791  0.04957939     0.19000
H304        H  0.52978715  0.09436663  0.50131241     0.19000
C305        C  0.33795996  0.01447991  0.48171642    -0.06900
C306        C  0.34414069  0.04454208  0.48443313    -0.18000
C307        C  0.37338308  0.05030803  0.47838376     0.10300
C308        C  0.39752359  0.02535928  0.47107149    -0.06800
C309        C  0.39743459  0.99238970  0.96855508    -0.18000
C310        C  0.36827692  0.98624963  0.97473222     0.10400
S311        S  0.37836784  0.08993392  0.48013183    -0.33000
S312        S  0.36342144  0.94645693  0.97151220    -0.33000
H313        H  0.39160701  0.93434894  0.95581704     0.28400
H314        H  0.40318600  0.08523435  0.45838721     0.28400
H315        H  0.32613636  0.06385057  0.49149684     0.19000
H316        H  0.41616132  0.97327701  0.96361070     0.19000
C317        C  0.11125860  0.48688222  0.02523097    -0.06900
C318        C  0.13227362  0.46037354  0.01468825    -0.18000
C319        C  0.16270542  0.46146444  0.00698104     0.10300
C320        C  0.17272004  0.48986306  0.01051688    -0.06800
C321        C  0.14438015  0.01832786  0.52640823    -0.18000
C322        C  0.11369069  0.01742083  0.53288371     0.10400
S323        S  0.18748367  0.42654866  0.99149982    -0.33000
S324        S  0.08697397  0.05349555  0.53856216    -0.33000
H325        H  0.10722910  0.07319139  0.53064867     0.28400
H326        H  0.16486543  0.40931208  0.98628295     0.28400
H327        H  0.12452190  0.43879010  0.01124566     0.19000
H328        H  0.15125845  0.04054864  0.52615712     0.19000
C329        C  0.53073226  0.49696942  0.39111131    -0.06900
C330        C  0.04931388  0.46720474  0.37447893    -0.18000
C331        C  0.04507194  0.46251679  0.34471705     0.10300
C332        C  0.52487426  0.49336284  0.33054863    -0.06800
C333        C  0.51677428  0.02056897  0.35150286    -0.18000
C334        C  0.52168636  0.02254977  0.38126180     0.10400
S335        S  0.06616985  0.42799001  0.32496593    -0.33000
S336        S  0.50624613  0.05840545  0.40223602    -0.33000
H337        H  0.52734469  0.05464804  0.42359509     0.28400
H338        H  0.04215106  0.42203799  0.30910044     0.28400
H339        H  0.06411046  0.44962027  0.38498660     0.19000
H340        H  0.50314450  0.03991932  0.34212348     0.19000
C341        C  0.97336638  0.00231350  0.10757998    -0.06900
C342        C  0.99923974  0.47672909  0.11493681    -0.18000
C343        C  0.00136735  0.46604941  0.14306704     0.10300
C344        C  0.97852733  0.98490615  0.16589065    -0.06800
C345        C  0.45177848  0.01305813  0.16397661    -0.18000
C346        C  0.44909332  0.02094755  0.13457174     0.10400
S347        S  0.03055380  0.43313311  0.14734412    -0.33000
S348        S  0.41891025  0.05128494  0.12628565    -0.33000
H349        H  0.40434667  0.05668637  0.15519426     0.28400
H350        H  0.01530665  0.42250338  0.17198722     0.28400
H351        H  0.01502043  0.46495966  0.09693021     0.19000
H352        H  0.43659309  0.02609475  0.18169594     0.19000
O353        O  0.07107717  0.46320808  0.01088274    -0.81600
O354        O  0.45516787  0.50764579  0.95566101    -0.66300
O355        O  0.03247562  0.00020723  0.98230336    -1.12900
C356        C  0.96644058  0.01618282  0.58068114     1.05300
O357        O  0.43475984  0.04834331  0.49283605    -0.79500
O358        O  0.45857576  0.07254964  0.53812065    -0.67100
Ni359      Ni  0.06312416  0.46968438  0.97086724     1.34900
C360        C  0.48590030  0.07619527  0.53586575     0.84000
O361        O  0.51216493  0.49841368  0.93030388    -0.80100
O362        O  0.05597001  0.47612194  0.93050761    -0.90300
C363        C  0.43485221  0.02629632  0.97200062     0.83600
O364        O  0.04208025  0.43590418  0.97137282    -0.68500
O365        O  0.44442232  0.02613233  0.57237888    -0.87800
C366        C  0.01444622  0.43412958  0.97040929     0.84400
C367        C  0.53866818  0.48582351  0.91903454     1.06000
H368        H  0.46403786  0.48881321  0.52183291     0.37800
O369        O  0.46917261  0.50838486  0.51680225    -1.10500
O370        O  0.00912159  0.05097292  0.52823145    -0.67100
Ni371      Ni  0.01165553  0.00715603  0.52970633     1.26300
O372        O  0.49222880  0.46064126  0.97060344    -0.67400
O373        O  0.99401407  0.01084401  0.56955843    -0.79700
C374        C  0.06704178  0.48486307  0.53275649     0.83800
O375        O  0.05081172  0.00693509  0.54313838    -0.66800
Ni376      Ni  0.44001662  0.03736916  0.53247992     1.27400
Ni377      Ni  0.49392010  0.50382209  0.96985083     1.26100
H378        H  0.03896235  0.01900797  0.97667547     0.38300
O379        O  0.03699094  0.48076005  0.77422750    -0.75200
O380        O  0.00480884  0.98139004  0.69775710    -0.75200
O381        O  0.02144190  0.02587189  0.73277791    -0.75300
O382        O  0.02019882  0.43811576  0.73764070    -0.75300
O383        O  0.47889483  0.44714745  0.76101464    -0.75200
O384        O  0.47516618  0.03646587  0.76135493    -0.75200
O385        O  0.45876489  0.99205329  0.72643929    -0.75200
O386        O  0.49599218  0.49002100  0.79750846    -0.75300
Ni387      Ni  0.02327439  0.98163333  0.73378095     1.25400
Ni388      Ni  0.47758357  0.49122345  0.76133631     1.25400
C389        C  0.52472183  0.48445197  0.79828517     0.87000
C390        C  0.47750884  0.98622245  0.70329746     0.86900
C391        C  0.49905085  0.04536252  0.75010784     0.87000
C392        C  0.50192097  0.42752021  0.74944443     0.87100
O393        O  0.26379994  0.47553620  0.94678483    -0.75200
O394        O  0.25703604  0.47690022  0.53432989    -0.75200
O395        O  0.21307012  0.47062362  0.49796253    -0.75300
O396        O  0.29483236  0.48277205  0.48482520    -0.75300
O397        O  0.29140543  0.03059898  0.99572392    -0.75200
O398        O  0.20949051  0.02020388  0.00726855    -0.75200
O399        O  0.24749655  0.02809424  0.54536658    -0.75200
O400        O  0.24823702  0.02507778  0.95814095    -0.75300
Ni401      Ni  0.25461731  0.47481058  0.49112424     1.25400
Ni402      Ni  0.24979443  0.02719791  0.00159868     1.25400
C403        C  0.25531748  0.50053225  0.93350674     0.87000
C404        C  0.24966073  0.50222086  0.55071244     0.86900
C405        C  0.19178854  0.49411870  0.50320238     0.87000
C406        C  0.31219512  0.51002191  0.98075563     0.87100
O407        O  0.99907313  0.28901798  0.96209107    -0.75200
O408        O  0.00841703  0.20388420  0.98062474    -0.75200
O409        O  0.45876090  0.25141782  0.97549758    -0.75300
O410        O  0.04713768  0.24517486  0.97324492    -0.75300
O411        O  0.03530391  0.26169209  0.52460012    -0.75200
O412        O  0.44726350  0.26714983  0.52331485    -0.75200
O413        O  0.49432959  0.22305243  0.53588281    -0.75200
O414        O  0.48715214  0.30712318  0.51491070    -0.75300
Ni415      Ni  0.00382063  0.24596563  0.96972794     1.25400
Ni416      Ni  0.49058770  0.26563197  0.52701752     1.25400
C417        C  0.49220568  0.31362332  0.98941968     0.87000
C418        C  0.50413517  0.20069504  0.01311224     0.86900
C419        C  0.44009953  0.25824948  0.99899914     0.87000
C420        C  0.05772579  0.25218518  0.99771911     0.87100
O421        O  0.45149221  0.24717239  0.74475080    -0.75200
O422        O  0.03321566  0.23070090  0.70573268    -0.75200
O423        O  0.99160089  0.19442520  0.72095221    -0.75300
O424        O  0.99217315  0.28210763  0.72381122    -0.75300
O425        O  0.51008386  0.27934576  0.77177077    -0.75200
O426        O  0.50733869  0.19212808  0.77078681    -0.75200
O427        O  0.04787875  0.22733383  0.75154610    -0.75200
O428        O  0.46810932  0.24532919  0.78980383    -0.75300
Ni429      Ni  0.99153912  0.23842239  0.72068644     1.25400
Ni430      Ni  0.50919762  0.23568354  0.77296116     1.25400
C431        C  0.44656017  0.24973434  0.77300518     0.87000
C432        C  0.05395866  0.22723999  0.72350127     0.86900
C433        C  0.49852583  0.17872857  0.74823455     0.84600
C434        C  0.50172834  0.29490729  0.74963763     0.87100
O435        O  0.33173651  0.23445116  0.73930070    -0.81600
O436        O  0.19537414  0.23081207  0.71834163    -0.66300
O437        O  0.27160171  0.25182748  0.72789361    -1.12900
C438        C  0.23433033  0.27452817  0.82609396     1.05300
O439        O  0.16783439  0.26962913  0.74715791    -0.79500
O440        O  0.20542587  0.30904989  0.75914665    -0.67100
Ni441      Ni  0.30622302  0.22254904  0.71066366     1.34900
C442        C  0.23099723  0.31671988  0.76072284     0.84000
O443        O  0.24090222  0.23728907  0.68104724    -0.80100
O444        O  0.28630302  0.20766866  0.67813580    -0.90300
C445        C  0.17037671  0.24735180  0.72777943     0.83600
O446        O  0.29588457  0.19112411  0.73464076    -0.68500
O447        O  0.21045267  0.28683600  0.81470479    -0.87800
C448        C  0.27092499  0.18155313  0.73503519     0.84400
C449        C  0.26210444  0.21855178  0.66673724     1.06000
H450        H  0.22322915  0.22753025  0.77247448     0.37800
O451        O  0.22561251  0.24640405  0.76410073    -1.10500
O452        O  0.25344422  0.29849824  0.76921996    -0.67100
Ni453      Ni  0.26428396  0.25440759  0.77026355     1.26300
O454        O  0.24691850  0.19751486  0.72667261    -0.67400
O455        O  0.25589334  0.25635326  0.81152790    -0.79700
C456        C  0.32816997  0.25092729  0.76344425     0.83800
O457        O  0.30283587  0.26198990  0.77698176    -0.66800
Ni458      Ni  0.19155788  0.27693970  0.77948744     1.27400
Ni459      Ni  0.23335075  0.24125386  0.72253260     1.26100
H460        H  0.27247222  0.27176934  0.72028294     0.38300
O461        O  0.25216494  0.24237787  0.95469029    -0.75200
O462        O  0.25316088  0.21421236  0.52241706    -0.75200
O463        O  0.20642941  0.23580642  0.48895100    -0.75300
O464        O  0.29356842  0.23793219  0.48626359    -0.75300
O465        O  0.28633754  0.28299331  0.00745480    -0.75200
O466        O  0.19916750  0.28059383  0.01091416    -0.75200
O467        O  0.24293564  0.25890661  0.54950402    -0.75200
O468        O  0.24174870  0.29247056  0.96902331    -0.75300
Ni469      Ni  0.25040557  0.23521508  0.48659575     1.25400
Ni470      Ni  0.24231886  0.28375333  0.00962287     1.25400
C471        C  0.24563009  0.27072989  0.94886684     0.87000
C472        C  0.24963950  0.22948899  0.54740072     0.86900
C473        C  0.18667049  0.25759693  0.50302548     0.87000
C474        C  0.30625785  0.25840087  0.99986309     0.87100
O475        O  0.22354012  0.46299488  0.74507721    -0.75200
O476        O  0.23579134  0.04948381  0.75265635    -0.75200
O477        O  0.22971427  0.00755566  0.70878339    -0.75300
O478        O  0.22927289  0.50674778  0.78782519    -0.75300
O479        O  0.27912339  0.49128699  0.78290307    -0.75200
O480        O  0.27936429  0.99051355  0.70434294    -0.75200
O481        O  0.28569893  0.03296353  0.74800184    -0.75200
O482        O  0.27362922  0.44764234  0.74015283    -0.75300
Ni483      Ni  0.22708697  0.50548108  0.74452215     1.25400
Ni484      Ni  0.28103241  0.99091889  0.74772984     1.25400
C485        C  0.24695853  0.44161136  0.74394629     0.87000
C486        C  0.26278505  0.05488521  0.74962835     0.86900
C487        C  0.25466175  0.99896518  0.69192217     0.87000
C488        C  0.25431224  0.49977650  0.80002629     0.87100
C489        C  0.27051192  0.14955077  0.74249182    -0.06900
C490        C  0.29352648  0.12638902  0.72876108    -0.18000
C491        C  0.29178583  0.09527371  0.73059326     0.10300
C492        C  0.26705864  0.08697864  0.74763990    -0.06800
C493        C  0.24476217  0.11016359  0.76232560    -0.18000
C494        C  0.24621216  0.14115347  0.75992372     0.10400
S495        S  0.32019382  0.06780309  0.70834967    -0.33000
S496        S  0.21701514  0.16868348  0.78063338    -0.33000
H497        H  0.23829080  0.18256852  0.79470198     0.28400
H498        H  0.29919170  0.05165611  0.69661184     0.28400
H499        H  0.31197219  0.13259928  0.71483102     0.19000
H500        H  0.22594485  0.10412264  0.77584118     0.19000
C501        C  0.23492019  0.34840642  0.75441811    -0.06900
C502        C  0.25915934  0.35922568  0.76625991    -0.18000
C503        C  0.26344044  0.38936219  0.76335305     0.10300
C504        C  0.24323637  0.40961625  0.74784461    -0.06800
C505        C  0.21886645  0.39911919  0.73607999    -0.18000
C506        C  0.21470930  0.36871208  0.73874817     0.10400
S507        S  0.29386449  0.40087605  0.78193671    -0.33000
S508        S  0.18375109  0.35746623  0.72092184    -0.33000
H509        H  0.20098124  0.32945103  0.70831194     0.28400
H510        H  0.27637879  0.42897335  0.79395700     0.28400
H511        H  0.27433153  0.34452458  0.77916106     0.19000
H512        H  0.20333649  0.41452695  0.72407480     0.19000
C513        C  0.25899828  0.21050785  0.63543678    -0.06900
C514        C  0.28506250  0.20564061  0.61537575    -0.18000
C515        C  0.28270623  0.20709326  0.58498411     0.10300
C516        C  0.25377856  0.21383052  0.57468136    -0.06800
C517        C  0.22795737  0.21449172  0.59413578    -0.18000
C518        C  0.23022797  0.21239244  0.62452283     0.10400
S519        S  0.31713424  0.20441565  0.56095672    -0.33000
S520        S  0.19617920  0.21339478  0.64892589    -0.33000
H521        H  0.17553422  0.21719157  0.62717572     0.28400
H522        H  0.30588989  0.19251757  0.53580968     0.28400
H523        H  0.30727034  0.20335853  0.62343997     0.19000
H524        H  0.20589204  0.21918693  0.58573649     0.19000
C525        C  0.23673590  0.28048687  0.85770400    -0.06900
C526        C  0.21081144  0.28151250  0.87721754    -0.18000
C527        C  0.21288621  0.28067813  0.90758170     0.10300
C528        C  0.24151008  0.27822219  0.91849995    -0.06800
C529        C  0.26707999  0.27967793  0.89943136    -0.18000
C530        C  0.26492671  0.28139854  0.86898735     0.10400
S531        S  0.17862237  0.28051702  0.93094084    -0.33000
S532        S  0.29808591  0.28498949  0.84503995    -0.33000
H533        H  0.31792658  0.28562625  0.86732324     0.28400
H534        H  0.18641306  0.29818774  0.95460062     0.28400
H535        H  0.18907861  0.28128925  0.86870751     0.19000
H536        H  0.28877923  0.27850515  0.90836331     0.19000
C537        C  0.08531269  0.22652646  0.71255993    -0.06900
C538        C  0.09232890  0.25432606  0.70289171    -0.18000
C539        C  0.12097717  0.26127939  0.70561874     0.10300
C540        C  0.14306347  0.23936551  0.71706543    -0.06800
C541        C  0.13726720  0.20989907  0.72249090    -0.18000
C542        C  0.10836429  0.20338433  0.72073045     0.10400
S543        S  0.12715191  0.29916673  0.69659211    -0.33000
S544        S  0.10129816  0.16656762  0.73226347    -0.33000
H545        H  0.07474104  0.16719856  0.71787970     0.28400
H546        H  0.15880928  0.29112923  0.69099203     0.28400
H547        H  0.07452725  0.27211112  0.69655571     0.19000
H548        H  0.15450170  0.19286333  0.73080438     0.19000
C549        C  0.41509428  0.25744970  0.78522488    -0.06900
C550        C  0.39764022  0.28310067  0.77391744    -0.18000
C551        C  0.36747793  0.28324980  0.76933585     0.10300
C552        C  0.35497653  0.25716523  0.77637872    -0.06800
C553        C  0.37092130  0.23401498  0.79214089    -0.18000
C554        C  0.40091826  0.23429980  0.79724745     0.10400
S555        S  0.34794984  0.31515132  0.75066307    -0.33000
S556        S  0.42133869  0.20216810  0.81471009    -0.33000
H557        H  0.43971175  0.21977846  0.82882555     0.28400
H558        H  0.31847963  0.31014467  0.75784899     0.28400
H559        H  0.40855489  0.30118534  0.76510332     0.19000
H560        H  0.36078716  0.21447988  0.79838517     0.19000
C561        C  0.40582086  0.25798052  0.99828378    -0.06900
C562        C  0.38170884  0.27645254  0.52065622    -0.18000
C563        C  0.34998728  0.27679352  0.52200013     0.10300
C564        C  0.34040986  0.25870021  0.99977029    -0.06800
C565        C  0.36098787  0.24419495  0.97593028    -0.18000
C566        C  0.39283303  0.24353878  0.97494342     0.10400
S567        S  0.32743333  0.29763612  0.55361430    -0.33000
S568        S  0.41555947  0.22281961  0.94338798    -0.33000
H569        H  0.43596727  0.20531522  0.96072758     0.28400
H570        H  0.31072512  0.27423482  0.55950700     0.28400
H571        H  0.39020660  0.28949038  0.53781340     0.19000
H572        H  0.35217659  0.23301119  0.95770899     0.19000
C573        C  0.15237863  0.25714534  0.50319389    -0.06900
C574        C  0.14640836  0.23541148  0.98176111    -0.18000
C575        C  0.11523743  0.23446843  0.97898463     0.10300
C576        C  0.08778863  0.25497708  0.50090356    -0.06800
C577        C  0.09854474  0.27153813  0.52394493    -0.18000
C578        C  0.12982501  0.27324837  0.52508446     0.10400
S579        S  0.10596442  0.20974536  0.94966843    -0.33000
S580        S  0.14033144  0.29547483  0.55558580    -0.33000
H581        H  0.11132581  0.31311191  0.56359196     0.28400
H582        H  0.13578828  0.19674247  0.93851895     0.28400
H583        H  0.16354957  0.22173539  0.96608962     0.19000
H584        H  0.08220576  0.28356730  0.54130529     0.19000
C585        C  0.25460583  0.50107178  0.83430067    -0.06900
C586        C  0.27722861  0.48143301  0.84787440    -0.18000
C587        C  0.27822332  0.48113637  0.87929361     0.10300
C588        C  0.25560984  0.50023601  0.89922326    -0.06800
C589        C  0.23487851  0.02156712  0.89434443    -0.18000
C590        C  0.23413373  0.02294338  0.86292888     0.10400
S591        S  0.31045767  0.45718489  0.89245176    -0.33000
S592        S  0.20725374  0.05362545  0.85011781    -0.33000
H593        H  0.22724624  0.06041794  0.82686114     0.28400
H594        H  0.31450155  0.47930820  0.91430257     0.28400
H595        H  0.29475850  0.46617105  0.83381155     0.19000
H596        H  0.21877998  0.03812766  0.90866767     0.19000
C597        C  0.25485478  0.00251608  0.59282522    -0.06900
C598        C  0.26871697  0.47652704  0.59740015    -0.18000
C599        C  0.27014200  0.47403362  0.62863092     0.10300
C600        C  0.25492635  0.99926147  0.65770101    -0.06800
C601        C  0.23590045  0.02289150  0.64448281    -0.18000
C602        C  0.23555450  0.02470321  0.61309347     0.10400
S603        S  0.29413838  0.44041739  0.64029511    -0.33000
S604        S  0.20875033  0.05557040  0.60049463    -0.33000
H605        H  0.19820266  0.03658170  0.57954076     0.28400
H606        H  0.27472977  0.43667756  0.66526526     0.28400
H607        H  0.28206131  0.45832953  0.58255678     0.19000
H608        H  0.22091570  0.04039837  0.65883731     0.19000
C609        C  0.50140757  0.39362104  0.74916435    -0.06900
C610        C  0.02231050  0.37505226  0.75655192    -0.18000
C611        C  0.02408343  0.34288616  0.75668017     0.10300
C612        C  0.50249856  0.32865746  0.74975159    -0.06800
C613        C  0.47642257  0.34908970  0.74346897    -0.18000
C614        C  0.47549648  0.38110710  0.74321576     0.10400
S615        S  0.05838300  0.32053379  0.76789520    -0.33000
S616        S  0.44059026  0.40438308  0.73442940    -0.33000
H617        H  0.45410923  0.42545438  0.71819737     0.28400
H618        H  0.05846083  0.29451017  0.74902647     0.28400
H619        H  0.04142102  0.38477981  0.76289972     0.19000
H620        H  0.45640272  0.34000042  0.73881074     0.19000
C621        C  0.49952493  0.07939519  0.74916442    -0.06900
C622        C  0.47400990  0.09954415  0.74092427    -0.18000
C623        C  0.47301442  0.13168075  0.74019437     0.10300
C624        C  0.49806221  0.14470180  0.74802696    -0.06800
C625        C  0.02346380  0.12439127  0.74998376    -0.18000
C626        C  0.02419918  0.09236063  0.75034782     0.10400
S627        S  0.43863880  0.15480098  0.72998111    -0.33000
S628        S  0.05812181  0.06905943  0.76119280    -0.33000
H629        H  0.04280525  0.05024271  0.77881577     0.28400
H630        H  0.43951613  0.18056617  0.74896103     0.28400
H631        H  0.45453625  0.09016729  0.73501500     0.19000
H632        H  0.04325361  0.13344677  0.75546645     0.19000
C633        C  0.99481861  0.34258329  0.97637952    -0.06900
C634        C  0.50782182  0.35261680  0.95676935    -0.18000
C635        C  0.51265473  0.38241730  0.95183891     0.10300
C636        C  0.00618314  0.40308747  0.96989444    -0.06800
C637        C  0.98164374  0.39788408  0.98898141    -0.18000
C638        C  0.96826551  0.36934788  0.49707056     0.10400
S639        S  0.53499846  0.38813410  0.91835972    -0.33000
S640        S  0.93683200  0.36446698  0.52260131    -0.33000
H641        H  0.93131648  0.33765430  0.50778247     0.28400
H642        H  0.52093249  0.41891626  0.91593639     0.28400
H643        H  0.51854981  0.33400209  0.94092632     0.19000
H644        H  0.95926714  0.41845205  0.50665535     0.19000
C645        C  0.49933550  0.16910888  0.52329650    -0.06900
C646        C  0.98212699  0.16026689  0.54203626    -0.18000
C647        C  0.97807680  0.13025685  0.54722229     0.10300
C648        C  0.49203452  0.10808271  0.53457061    -0.06800
C649        C  0.52056547  0.11306011  0.00984755    -0.18000
C650        C  0.52438802  0.14322076  0.00469149     0.10400
S651        S  0.95090854  0.12544010  0.57734718    -0.33000
S652        S  0.55509804  0.14807850  0.97827339    -0.33000
H653        H  0.56106402  0.17474833  0.99296253     0.28400
H654        H  0.96648188  0.09657614  0.58455688     0.28400
H655        H  0.96812125  0.17927121  0.55545000     0.19000
H656        H  0.53533015  0.09405226  0.99710815     0.19000
C657        C  0.34408156  0.01106514  0.98379461    -0.06900
C658        C  0.34981703  0.04134949  0.98434943    -0.18000
C659        C  0.37882343  0.04733181  0.97752009     0.10300
C660        C  0.40321264  0.02251542  0.97083139    -0.06800
C661        C  0.39110529  0.99582635  0.46559357    -0.18000
C662        C  0.36160432  0.99012690  0.47018490     0.10400
S663        S  0.38311728  0.08715380  0.97774019    -0.33000
S664        S  0.35526388  0.95163178  0.46107492    -0.33000
H665        H  0.38411377  0.93980756  0.44660425     0.28400
H666        H  0.40741590  0.08229934  0.95544455     0.28400
H667        H  0.33157474  0.06077554  0.99017456     0.19000
H668        H  0.40949787  0.97670213  0.45925315     0.19000
C669        C  0.09903675  0.48832289  0.53009148    -0.06900
C670        C  0.12120140  0.46141149  0.52734019    -0.18000
C671        C  0.15165757  0.46212025  0.51881036     0.10300
C672        C  0.16018086  0.49067549  0.51237651    -0.06800
C673        C  0.14927257  0.01635381  0.01558441    -0.18000
C674        C  0.11861536  0.01513903  0.02027569     0.10400
S675        S  0.17867218  0.42624652  0.51632733    -0.33000
S676        S  0.09123944  0.05017356  0.01792598    -0.33000
H677        H  0.11141396  0.06823888  0.00588964     0.28400
H678        H  0.15835241  0.40687172  0.52501317     0.28400
H679        H  0.11432537  0.43955670  0.53120645     0.19000
H680        H  0.15570748  0.03834737  0.01152044     0.19000
C681        C  0.54445360  0.48697584  0.88712262    -0.06900
C682        C  0.05006378  0.46475951  0.86847038    -0.18000
C683        C  0.04598578  0.46294546  0.83843119     0.10300
C684        C  0.53641138  0.48504268  0.82702387    -0.06800
C685        C  0.52466970  0.01833799  0.84793750    -0.18000
C686        C  0.53127368  0.02001797  0.87727425     0.10400
S687        S  0.05924256  0.42645856  0.81795414    -0.33000
S688        S  0.52214270  0.05707351  0.89753992    -0.33000
H689        H  0.54316559  0.04980672  0.91859611     0.28400
H690        H  0.03316740  0.42720731  0.80285071     0.28400
H691        H  0.06079540  0.44435631  0.87860131     0.19000
H692        H  0.51343068  0.03884269  0.83828522     0.19000
C693        C  0.96092281  0.00628162  0.61045344    -0.06900
C694        C  0.97298761  0.47694601  0.61773508    -0.18000
C695        C  0.97646816  0.46857155  0.64648422     0.10300
C696        C  0.96431236  0.98868144  0.66825249    -0.06800
C697        C  0.44675187  0.01496696  0.66808345    -0.18000
C698        C  0.44460142  0.02393970  0.63905868     0.10400
S699        S  0.99903640  0.43131594  0.65144061    -0.33000
S700        S  0.42085018  0.06013302  0.63345343    -0.33000
H701        H  0.40404891  0.04691813  0.61328559     0.28400
H702        H  0.98849539  0.42922424  0.68111240     0.28400
H703        H  0.98409863  0.46118926  0.59946462     0.19000
H704        H  0.43485634  0.03033361  0.68627096     0.19000
O705        O  0.06579666  0.96367931  0.51713926    -0.81600
O706        O  0.45050614  0.00644976  0.46454887    -0.66300
O707        O  0.02206984  0.50316788  0.48996860    -1.12900
C708        C  0.97833124  0.51276707  0.07964037     1.05300
O709        O  0.43964119  0.55002544  0.98354781    -0.79500
O710        O  0.46548557  0.57349633  0.02834018    -0.67100
Ni711      Ni  0.06036157  0.97027890  0.47665268     1.34900
C712        C  0.49330587  0.57544189  0.02588103     0.84000
O713        O  0.50660076  0.00280857  0.43811528    -0.80100
O714        O  0.05554852  0.97618465  0.43547665    -0.90300
C715        C  0.42251015  0.52972719  0.47380983     0.83600
O716        O  0.03947504  0.93655523  0.47598286    -0.68500
O717        O  0.44798258  0.52981249  0.06414620    -0.87800
C718        C  0.01188730  0.93476773  0.47488617     0.84400
C719        C  0.53340691  0.99355389  0.42584458     1.06000
H720        H  0.47610187  0.98644206  0.02027378     0.37800
O721        O  0.48078015  0.00617123  0.01516057    -1.10500
O722        O  0.01377417  0.55058737  0.02331909    -0.67100
Ni723      Ni  0.01831149  0.50663185  0.02521709     1.26300
O724        O  0.49189484  0.96102340  0.47656456    -0.67400
O725        O  0.00456768  0.51037617  0.06597386    -0.79700
C726        C  0.07834094  0.98284585  0.02488960     0.83800
O727        O  0.05825594  0.50756472  0.03526659    -0.66800
Ni728      Ni  0.44441057  0.54001510  0.02364837     1.27400
Ni729      Ni  0.48957161  0.00513840  0.47789341     1.26100
H730        H  0.02875277  0.52192532  0.48451676     0.38300
O731        O  0.03715650  0.97319694  0.27962593    -0.75200
O732        O  0.01619770  0.47365363  0.20251628    -0.75200
O733        O  0.02660177  0.51758594  0.24235389    -0.75300
O734        O  0.02545549  0.93046948  0.24001838    -0.75300
O735        O  0.47810873  0.95183675  0.26259609    -0.75200
O736        O  0.47580214  0.54051733  0.25820268    -0.75200
O737        O  0.46243269  0.49810088  0.21925758    -0.75200
O738        O  0.49072857  0.99648299  0.30083736    -0.75300
Ni739      Ni  0.02813639  0.47318380  0.24147157     1.25400
Ni740      Ni  0.47569040  0.99615744  0.26273679     1.25400
C741        C  0.51910644  0.99191863  0.30409587     0.87000
C742        C  0.48265227  0.49376799  0.19731498     0.86900
C743        C  0.50031958  0.54990674  0.24972077     0.87000
C744        C  0.50224665  0.93263199  0.25294585     0.87100
O745        O  0.25759917  0.97649976  0.45571252    -0.75200
O746        O  0.26715677  0.97505784  0.04164826    -0.75200
O747        O  0.22444136  0.96936870  0.00361393    -0.75300
O748        O  0.30643662  0.97981149  0.99285695    -0.75300
O749        O  0.27858482  0.53344056  0.48755687    -0.75200
O750        O  0.19750187  0.52132609  0.50140732    -0.75200
O751        O  0.25316077  0.52829263  0.03598344    -0.75200
O752        O  0.23506719  0.52642069  0.45095930    -0.75300
Ni753      Ni  0.26598783  0.97290459  0.99815248     1.25400
Ni754      Ni  0.23754636  0.52892074  0.49450878     1.25400
C755        C  0.24961601  0.00159698  0.44247315     0.87000
C756        C  0.25929270  0.00051068  0.05783553     0.86900
C757        C  0.20342748  0.99306209  0.00831068     0.87000
C758        C  0.30665980  0.00988093  0.49016493     0.87100
O759        O  0.99559661  0.79042652  0.46613621    -0.75200
O760        O  0.00201652  0.70509960  0.48323704    -0.75200
O761        O  0.45376496  0.75453239  0.47472263    -0.75300
O762        O  0.04236683  0.74484257  0.47615729    -0.75300
O763        O  0.03980684  0.76100851  0.02528913    -0.75200
O764        O  0.45368837  0.76455603  0.02111619    -0.75200
O765        O  0.50264357  0.72097988  0.03111642    -0.75200
O766        O  0.49230808  0.80605385  0.01355546    -0.75300
Ni767      Ni  0.99897388  0.74726881  0.47285743     1.25400
Ni768      Ni  0.49710657  0.76400666  0.02394927     1.25400
C769        C  0.49038016  0.81457324  0.48851873     0.87000
C770        C  0.49670407  0.70221478  0.51357914     0.86900
C771        C  0.43493171  0.76200056  0.49800698     0.87000
C772        C  0.05336422  0.75119149  0.50053141     0.87100
O773        O  0.45203876  0.75008067  0.24692464    -0.75200
O774        O  0.03485976  0.72305077  0.21440051    -0.75200
O775        O  0.99415293  0.68618915  0.23101530    -0.75300
O776        O  0.99321327  0.77402329  0.23208436    -0.75300
O777        O  0.50956491  0.78372965  0.27531250    -0.75200
O778        O  0.50803774  0.69616446  0.27358577    -0.75200
O779        O  0.05026743  0.72045685  0.25993036    -0.75200
O780        O  0.46796622  0.74826996  0.29224328    -0.75300
Ni781      Ni  0.99323601  0.73021631  0.23001365     1.25400
Ni782      Ni  0.50930806  0.73977688  0.27618913     1.25400
C783        C  0.44663277  0.75144345  0.27516183     0.87000
C784        C  0.05596480  0.72017830  0.23182442     0.86900
C785        C  0.49989710  0.68278602  0.25065662     0.84600
C786        C  0.50168607  0.79938426  0.25303936     0.87100
O787        O  0.32170455  0.72623490  0.26464487    -0.81600
O788        O  0.19665865  0.72696562  0.23011095    -0.66300
O789        O  0.27018997  0.75370914  0.24004621    -1.12900
C790        C  0.22647561  0.78993226  0.33371593     1.05300
O791        O  0.16810476  0.77053144  0.25019642    -0.79500
O792        O  0.20283924  0.81325410  0.26181611    -0.67100
Ni793      Ni  0.30766635  0.72812509  0.22578077     1.34900
C794        C  0.22755970  0.82249856  0.26445864     0.84000
O795        O  0.24541279  0.72783308  0.19365493    -0.80100
O796        O  0.29516899  0.72943804  0.18632330    -0.90300
C797        C  0.17137970  0.74493124  0.23502390     0.83600
O798        O  0.29715623  0.68854804  0.23000876    -0.68500
O799        O  0.20277144  0.79762019  0.32008946    -0.87800
C800        C  0.27306027  0.68037327  0.24042387     0.84400
C801        C  0.26935864  0.72862107  0.17696553     1.06000
H802        H  0.22065426  0.73440899  0.28635447     0.37800
O803        O  0.22315369  0.75198024  0.27509576    -1.10500
O804        O  0.25022045  0.80593541  0.27435548    -0.67100
Ni805      Ni  0.26109337  0.76278903  0.28144227     1.26300
O806        O  0.24805471  0.69889199  0.24542935    -0.67400
O807        O  0.25016753  0.77196971  0.32219518    -0.79700
C808        C  0.32344432  0.75054905  0.27985029     0.83800
O809        O  0.30022418  0.77113637  0.28665927    -0.66800
Ni810      Ni  0.18780855  0.78285376  0.28413960     1.27400
Ni811      Ni  0.23388980  0.73969137  0.23437013     1.26100
H812        H  0.26953681  0.77273182  0.23018560     0.38300
O813        O  0.24386758  0.75853792  0.45157218    -0.75200
O814        O  0.25866575  0.72065926  0.03365590    -0.75200
O815        O  0.21183900  0.73064237  0.99720196    -0.75300
O816        O  0.29924625  0.73280053  0.98999253    -0.75300
O817        O  0.28060200  0.78494872  0.51035684    -0.75200
O818        O  0.19473064  0.77808856  0.51608341    -0.75200
O819        O  0.24791399  0.77061748  0.04819186    -0.75200
O820        O  0.23193575  0.80352853  0.47810866    -0.75300
Ni821      Ni  0.25590567  0.72995907  0.99304068     1.25400
Ni822      Ni  0.23722989  0.78315155  0.51412041     1.25400
C823        C  0.23541970  0.78781155  0.45335520     0.87000
C824        C  0.25491729  0.74234124  0.05399549     0.86900
C825        C  0.19201774  0.75514274  0.00545880     0.87000
C826        C  0.30102073  0.76333365  0.49704561     0.87100
O827        O  0.22341058  0.96905390  0.25041388    -0.75200
O828        O  0.23533040  0.54986708  0.24493868    -0.75200
O829        O  0.23002722  0.50960200  0.19910169    -0.75300
O830        O  0.22852312  0.01162543  0.29509478    -0.75300
O831        O  0.27811995  0.99472499  0.29220393    -0.75200
O832        O  0.27896183  0.48945818  0.19723627    -0.75200
O833        O  0.28480804  0.53075177  0.24242553    -0.75200
O834        O  0.27309571  0.95196734  0.24796052    -0.75300
Ni835      Ni  0.22848324  0.01118392  0.25142526     1.25400
Ni836      Ni  0.27776094  0.48942573  0.24096694     1.25400
C837        C  0.24603698  0.94670744  0.24877083     0.87000
C838        C  0.26280820  0.55365441  0.24408398     0.86900
C839        C  0.25552167  0.49963855  0.18346724     0.87000
C840        C  0.25275581  0.00354106  0.30839077     0.87100
C841        C  0.27363914  0.64754815  0.24530766    -0.06900
C842        C  0.29357336  0.62546875  0.22641875    -0.18000
C843        C  0.29103395  0.59443895  0.22582710     0.10300
C844        C  0.26864998  0.58512454  0.24513038    -0.06800
C845        C  0.24999241  0.60677891  0.26519708    -0.18000
C846        C  0.25247347  0.63772048  0.26582939     0.10400
S847        S  0.31487491  0.56861256  0.19803718    -0.33000
S848        S  0.22810497  0.66316734  0.29353402    -0.33000
H849        H  0.24988901  0.68136237  0.29906843     0.28400
H850        H  0.29169960  0.55342381  0.18971184     0.28400
H851        H  0.30983873  0.63265463  0.21050878     0.19000
H852        H  0.23318730  0.59952789  0.28046595     0.19000
C853        C  0.23020221  0.85407012  0.25692625    -0.06900
C854        C  0.25753455  0.85897392  0.24257506    -0.18000
C855        C  0.26269734  0.88873592  0.23797101     0.10300
C856        C  0.24054820  0.91456781  0.24902379    -0.06800
C857        C  0.21280753  0.90950113  0.26253897    -0.18000
C858        C  0.20736999  0.87971735  0.26645299     0.10400
S859        S  0.29746204  0.89196265  0.21688576    -0.33000
S860        S  0.17227178  0.87603336  0.28676728    -0.33000
H861        H  0.16223536  0.86092203  0.26258201     0.28400
H862        H  0.28278517  0.91508408  0.20010776     0.28400
H863        H  0.27502402  0.83940017  0.23482610     0.19000
H864        H  0.19554541  0.92888203  0.27121925     0.19000
C865        C  0.26584087  0.73094311  0.14536111    -0.06900
C866        C  0.28696835  0.71304461  0.12418480    -0.18000
C867        C  0.28387370  0.71565111  0.09388436     0.10300
C868        C  0.25850431  0.73560381  0.08488205    -0.06800
C869        C  0.23732758  0.75297384  0.10617218    -0.18000
C870        C  0.24121712  0.75166782  0.13608629     0.10400
S871        S  0.31393586  0.69488734  0.06804649    -0.33000
S872        S  0.21541307  0.77919069  0.16095281    -0.33000
H873        H  0.23747150  0.78577320  0.17923433     0.28400
H874        H  0.31474186  0.71951929  0.04957171     0.28400
H875        H  0.30624170  0.69763006  0.13124778     0.19000
H876        H  0.21829522  0.76895311  0.09933943     0.19000
C877        C  0.22625831  0.80115299  0.36472789    -0.06900
C878        C  0.19994901  0.80204983  0.38378119    -0.18000
C879        C  0.20123349  0.80294603  0.41442527     0.10300
C880        C  0.22935053  0.80266696  0.42594440    -0.06800
C881        C  0.25445928  0.80652179  0.40726233    -0.18000
C882        C  0.25312917  0.80618174  0.37658380     0.10400
S883        S  0.16735611  0.80015043  0.43744661    -0.33000
S884        S  0.28626538  0.81040987  0.35288945    -0.33000
H885        H  0.30422438  0.81630459  0.37564458     0.28400
H886        H  0.17590077  0.81375809  0.46325544     0.28400
H887        H  0.17900045  0.79917203  0.37484635     0.19000
H888        H  0.27584186  0.80670244  0.41647836     0.19000
C889        C  0.08723901  0.72006225  0.22044816    -0.06900
C890        C  0.09343676  0.74773601  0.20972405    -0.18000
C891        C  0.12180618  0.75573940  0.21180144     0.10300
C892        C  0.14456356  0.73516928  0.22411643    -0.06800
C893        C  0.13956391  0.70559425  0.23053467    -0.18000
C894        C  0.11097798  0.69794667  0.22906463     0.10400
S895        S  0.12667790  0.79326178  0.20043364    -0.33000
S896        S  0.10516375  0.66098168  0.24132592    -0.33000
H897        H  0.07858116  0.66044329  0.22725511     0.28400
H898        H  0.15825428  0.78572577  0.19491618     0.28400
H899        H  0.07519153  0.76472268  0.20291762     0.19000
H900        H  0.15712511  0.68938974  0.23938935     0.19000
C901        C  0.41505691  0.75592008  0.28737234    -0.06900
C902        C  0.39543041  0.78171585  0.27898571    -0.18000
C903        C  0.36452381  0.78175398  0.27894566     0.10300
C904        C  0.35316928  0.75536417  0.28748565    -0.06800
C905        C  0.37232606  0.73100985  0.29897894    -0.18000
C906        C  0.40316076  0.73134153  0.29958905     0.10400
S907        S  0.34172074  0.81425465  0.26393307    -0.33000
S908        S  0.42675413  0.69813910  0.31249291    -0.33000
H909        H  0.44459185  0.71546409  0.32771663     0.28400
H910        H  0.32843456  0.79639860  0.24418605     0.28400
H911        H  0.40463812  0.80062788  0.26965121     0.19000
H912        H  0.36353384  0.71092289  0.30597010     0.19000
C913        C  0.40065295  0.76273777  0.49665416    -0.06900
C914        C  0.38719913  0.77828935  0.01478010    -0.18000
C915        C  0.35540900  0.77886507  0.01574876     0.10300
C916        C  0.33513704  0.76444093  0.49706672    -0.06800
C917        C  0.35641971  0.74587633  0.47600035    -0.18000
C918        C  0.38826110  0.74466322  0.47564005     0.10400
S919        S  0.33183955  0.80622742  0.04229219    -0.33000
S920        S  0.41183398  0.71814541  0.44835323    -0.33000
H921        H  0.43189900  0.70544082  0.46863780     0.28400
H922        H  0.31482144  0.78470646  0.05331720     0.28400
H923        H  0.39526137  0.79495134  0.02883591     0.19000
H924        H  0.34823726  0.73154121  0.45967760     0.19000
C925        C  0.15766302  0.75453288  0.00599890    -0.06900
C926        C  0.14159023  0.73599287  0.48118794    -0.18000
C927        C  0.11036142  0.73460158  0.47951970     0.10300
C928        C  0.09298337  0.75275210  0.00323223    -0.06800
C929        C  0.10328239  0.77288714  0.02363399    -0.18000
C930        C  0.13469355  0.77422906  0.02502942     0.10400
S931        S  0.10027230  0.71149092  0.44936533    -0.33000
S932        S  0.14506497  0.80066088  0.05215648    -0.33000
H933        H  0.11589379  0.81098367  0.06652182     0.28400
H934        H  0.12986876  0.69807624  0.43783595     0.28400
H935        H  0.15817375  0.72381801  0.46411579     0.19000
H936        H  0.08646280  0.78818531  0.03837282     0.19000
C937        C  0.25157509  0.00386183  0.34282834    -0.06900
C938        C  0.27151389  0.98159346  0.35673337    -0.18000
C939        C  0.27084489  0.97991937  0.38821080     0.10300
C940        C  0.25018281  0.00139103  0.40802594    -0.06800
C941        C  0.22453462  0.52270511  0.38598163    -0.18000
C942        C  0.22515793  0.52359475  0.35435523     0.10400
S943        S  0.29834829  0.95041405  0.40172722    -0.33000
S944        S  0.19998011  0.55481992  0.34021494    -0.33000
H945        H  0.22145381  0.56063645  0.31787310     0.28400
H946        H  0.27610026  0.93498031  0.41428971     0.28400
H947        H  0.28774936  0.96473873  0.34284888     0.19000
H948        H  0.20859339  0.54006793  0.39960005     0.19000
C949        C  0.26008095  0.50348442  0.08396379    -0.06900
C950        C  0.28308302  0.98464338  0.10571630    -0.18000
C951        C  0.28367651  0.98437050  0.13715390     0.10300
C952        C  0.25777533  0.50031434  0.14911387    -0.06800
C953        C  0.24211063  0.52576204  0.13533897    -0.18000
C954        C  0.24292459  0.52758245  0.10385771     0.10400
S955        S  0.31776774  0.96382100  0.15014490    -0.33000
S956        S  0.22027576  0.56117998  0.09072330    -0.33000
H957        H  0.20571450  0.54402980  0.07149100     0.28400
H958        H  0.30218376  0.94651259  0.16900087     0.28400
H959        H  0.30258501  0.97246563  0.09170059     0.19000
H960        H  0.22872244  0.54465711  0.14934592     0.19000
C961        C  0.50218422  0.89849841  0.25210213    -0.06900
C962        C  0.02533255  0.86765972  0.26068687    -0.18000
C963        C  0.02611402  0.83575569  0.26305205     0.10300
C964        C  0.50268956  0.83334452  0.25303403    -0.06800
C965        C  0.47968695  0.85321124  0.24051151    -0.18000
C966        C  0.47917627  0.88520842  0.23984260     0.10400
S967        S  0.05891912  0.81394657  0.27746426    -0.33000
S968        S  0.44884411  0.90745334  0.22208555    -0.33000
H969        H  0.46524452  0.92948597  0.21146250     0.28400
H970        H  0.06079138  0.78778669  0.25818890     0.28400
H971        H  0.04399899  0.87759478  0.26788616     0.19000
H972        H  0.46175201  0.84371690  0.23112344     0.19000
C973        C  0.50057415  0.58375507  0.25041483    -0.06900
C974        C  0.47919117  0.60292868  0.23544337    -0.18000
C975        C  0.47818403  0.63498312  0.23528651     0.10300
C976        C  0.49931732  0.64880451  0.25019884    -0.06800
C977        C  0.02291655  0.61683739  0.26672734    -0.18000
C978        C  0.02380543  0.58465996  0.26631724     0.10400
S979        S  0.44838094  0.65694659  0.21675569    -0.33000
S980        S  0.05236549  0.56213190  0.28592599    -0.33000
H981        H  0.03388914  0.54176527  0.29649797     0.28400
H982        H  0.44122946  0.68095358  0.23905742     0.28400
H983        H  0.46292796  0.59283044  0.22383010     0.19000
H984        H  0.03992777  0.62639342  0.27767323     0.19000
C985        C  0.99236669  0.84351463  0.48166224    -0.06900
C986        C  0.52052748  0.85060173  0.46735526    -0.18000
C987        C  0.52700762  0.88004334  0.46391768     0.10300
C988        C  0.00378503  0.90382178  0.47491876    -0.06800
C989        C  0.98014438  0.89863948  0.49510452    -0.18000
C990        C  0.97710813  0.86829759  0.99312187     0.10400
S991        S  0.56320786  0.88212615  0.44470602    -0.33000
S992        S  0.94545965  0.86539219  0.01921463    -0.33000
H993        H  0.93838690  0.83907280  0.00482903     0.28400
H994        H  0.55201774  0.90805670  0.42923445     0.28400
H995        H  0.53769655  0.83070430  0.45972499     0.19000
H996        H  0.96988368  0.91748004  0.00136718     0.19000
C997        C  0.50920439  0.66738370  0.01681305    -0.06900
C998        C  0.98340367  0.66000510  0.04129813    -0.18000
C999        C  0.97913232  0.62985502  0.04562228     0.10300
C1000       C  0.50110254  0.60643940  0.02550706    -0.06800
C1001       C  0.50871017  0.61425842  0.50784952    -0.18000
C1002       C  0.51308636  0.64423593  0.50247928     0.10400
S1003       S  0.95037813  0.62487385  0.07401335    -0.33000
S1004       S  0.54044491  0.64835018  0.47228898    -0.33000
H1005       H  0.55152697  0.67214131  0.48698358     0.28400
H1006       H  0.96877931  0.59924081  0.08450548     0.28400
H1007       H  0.96832820  0.67897688  0.05378501     0.19000
H1008       H  0.52067900  0.59524752  0.49303927     0.19000
C1009       C  0.33138312  0.51553768  0.47674140    -0.06900
C1010       C  0.33717709  0.54520472  0.48336014    -0.18000
C1011       C  0.36634222  0.55163919  0.47952146     0.10300
C1012       C  0.39078439  0.52762596  0.46974373    -0.06800
C1013       C  0.39658462  0.49675099  0.95680766    -0.18000
C1014       C  0.36734288  0.49056860  0.96158502     0.10400
S1015       S  0.37059986  0.59086519  0.48775340    -0.33000
S1016       S  0.36216139  0.45125224  0.95473152    -0.33000
H1017       H  0.39024990  0.44028942  0.93837804     0.28400
H1018       H  0.39415803  0.59032857  0.46521716     0.28400
H1019       H  0.31891738  0.56361845  0.49211500     0.19000
H1020       H  0.41519657  0.47765928  0.95120088     0.19000
C1021       C  0.10992893  0.98643628  0.02492652    -0.06900
C1022       C  0.13205983  0.95990214  0.02541197    -0.18000
C1023       C  0.16275646  0.96121705  0.02122787     0.10300
C1024       C  0.17163961  0.98968856  0.01519474    -0.06800
C1025       C  0.13791969  0.51767844  0.51606201    -0.18000
C1026       C  0.10764017  0.51694749  0.52484804     0.10400
S1027       S  0.18887223  0.92578194  0.02442096    -0.33000
S1028       S  0.08027938  0.55258770  0.52685410    -0.33000
H1029       H  0.10074692  0.57264415  0.52114332     0.28400
H1030       H  0.20541441  0.93916956  0.04477040     0.28400
H1031       H  0.12532486  0.93788973  0.02897688     0.19000
H1032       H  0.14409707  0.53966643  0.51148445     0.19000
C1033       C  0.53751228  0.99654689  0.39392439    -0.06900
C1034       C  0.04866477  0.96083082  0.37326801    -0.18000
C1035       C  0.04259146  0.95681491  0.34385623     0.10300
C1036       C  0.52856395  0.99369324  0.33388518    -0.06800
C1037       C  0.51228378  0.52044922  0.34765544    -0.18000
C1038       C  0.51559305  0.52278331  0.37774453     0.10400
S1039       S  0.05603952  0.91952473  0.32493571    -0.33000
S1040       S  0.49941324  0.55887290  0.39799695    -0.33000
H1041       H  0.51968570  0.55554689  0.42012138     0.28400
H1042       H  0.03021021  0.91949353  0.30957404     0.28400
H1043       H  0.06065937  0.94148125  0.38398919     0.19000
H1044       H  0.49910086  0.53963089  0.33763159     0.19000
C1045       C  0.97750899  0.50247896  0.10974627    -0.06900
C1046       C  0.99207423  0.97461549  0.11340529    -0.18000
C1047       C  0.99457733  0.96555183  0.14218509     0.10300
C1048       C  0.98140980  0.48163744  0.16667729    -0.06800
C1049       C  0.45242655  0.52210845  0.16091140    -0.18000
C1050       C  0.44874532  0.52946980  0.13155107     0.10400
S1051       S  0.01879970  0.92927125  0.14719235    -0.33000
S1052       S  0.42254929  0.56380254  0.12507885    -0.33000
H1053       H  0.40717988  0.54841542  0.10514730     0.28400
H1054       H  0.00345367  0.92356776  0.17407115     0.28400
H1055       H  0.00532749  0.96008806  0.09531487     0.19000
H1056       H  0.44012983  0.53757703  0.17883321     0.19000
O1057       O  0.07187739  0.96069289  0.00957929    -0.81600
O1058       O  0.45618330  0.00521605  0.96093826    -0.66300
O1059       O  0.03067689  0.50237653  0.98381919    -1.12900
C1060       C  0.96226666  0.51597163  0.58230524     1.05300
O1061       O  0.42848361  0.54994436  0.49191647    -0.79500
O1062       O  0.45437672  0.57372556  0.53629298    -0.67100
Ni1063     Ni  0.06520889  0.96756777  0.96932537     1.34900
C1064       C  0.48185600  0.57687992  0.53306659     0.84000
O1065       O  0.51242990  0.00121976  0.93423620    -0.80100
O1066       O  0.05944955  0.97433478  0.92851806    -0.90300
C1067       C  0.43402512  0.52943963  0.96557746     0.83600
O1068       O  0.04382434  0.93406407  0.96880655    -0.68500
O1069       O  0.44064381  0.52736674  0.57095109    -0.87800
C1070       C  0.01610122  0.93271562  0.96769503     0.84400
C1071       C  0.53912112  0.99071327  0.92219851     1.06000
H1072       H  0.46967121  0.98754432  0.52369835     0.37800
O1073       O  0.47465383  0.00723600  0.51888341    -1.10500
O1074       O  0.00468166  0.55099750  0.52934931    -0.67100
Ni1075     Ni  0.00687327  0.50726091  0.53095348     1.26300
O1076       O  0.49731975  0.95983603  0.97326164    -0.67400
O1077       O  0.98968042  0.51105290  0.57085006    -0.79700
C1078       C  0.07221679  0.98566717  0.53263021     0.83800
O1079       O  0.04625111  0.50632613  0.54407935    -0.66800
Ni1080     Ni  0.43509661  0.53882302  0.53130518     1.27400
Ni1081     Ni  0.49543302  0.00381755  0.97404949     1.26100
H1082       H  0.03678558  0.52116088  0.97758778     0.38300
O1083       O  0.03855886  0.98248222  0.77151358    -0.75200
O1084       O  0.00447616  0.48252019  0.69977901    -0.75200
O1085       O  0.02152048  0.52547368  0.73663933    -0.75300
O1086       O  0.02179093  0.93825935  0.73657555    -0.75300
O1087       O  0.47414472  0.94911462  0.76649440    -0.75200
O1088       O  0.47952810  0.53460951  0.75984661    -0.75200
O1089       O  0.46242349  0.49187529  0.72352067    -0.75200
O1090       O  0.49083445  0.99406404  0.80146018    -0.75300
Ni1091     Ni  0.02244568  0.48132492  0.73618673     1.25400
Ni1092     Ni  0.47305392  0.99324888  0.76479410     1.25400
C1093       C  0.51955520  0.98871052  0.80264726     0.87000
C1094       C  0.48053463  0.48698928  0.69994476     0.86900
C1095       C  0.50322869  0.54402644  0.74888626     0.87000
C1096       C  0.49740408  0.92896311  0.75624025     0.87100
O1097       O  0.26386423  0.97443544  0.95489979    -0.75200
O1098       O  0.26289763  0.97743090  0.54219255    -0.75200
O1099       O  0.21911845  0.97137015  0.50575068    -0.75300
O1100       O  0.30099290  0.98270481  0.49236956    -0.75300
O1101       O  0.29070972  0.53339101  0.98535498    -0.75200
O1102       O  0.20953096  0.52114524  0.99987319    -0.75200
O1103       O  0.24136070  0.52750552  0.53774583    -0.75200
O1104       O  0.24690716  0.52601928  0.94954306    -0.75300
Ni1105     Ni  0.26066244  0.97525772  0.49887816     1.25400
Ni1106     Ni  0.24954772  0.52895507  0.99281063     1.25400
C1107       C  0.25600377  0.99968162  0.94185341     0.87000
C1108       C  0.25519675  0.00281385  0.55848006     0.86900
C1109       C  0.19787509  0.99489775  0.51074502     0.87000
C1110       C  0.31252875  0.00684225  0.99136380     0.87100
O1111       O  0.99979618  0.78856927  0.96521194    -0.75200
O1112       O  0.00920055  0.70461441  0.98585580    -0.75200
O1113       O  0.46116143  0.75057994  0.97305784    -0.75300
O1114       O  0.04803425  0.74554363  0.97764853    -0.75300
O1115       O  0.03490068  0.75871815  0.52416512    -0.75200
O1116       O  0.44543143  0.76867726  0.52266982    -0.75200
O1117       O  0.49226781  0.72342624  0.53455077    -0.75200
O1118       O  0.48605079  0.80816746  0.51562577    -0.75300
Ni1119     Ni  0.00470661  0.74603696  0.97406339     1.25400
Ni1120     Ni  0.48900448  0.76633808  0.52666738     1.25400
C1121       C  0.49564135  0.81310967  0.98655170     0.87000
C1122       C  0.50789401  0.70001659  0.00992558     0.86900
C1123       C  0.44284483  0.75728170  0.99685448     0.87000
C1124       C  0.05863716  0.75300042  0.00200625     0.87100
O1125       O  0.45276252  0.74426065  0.75020125    -0.75200
O1126       O  0.03455438  0.73029864  0.70858436    -0.75200
O1127       O  0.99384209  0.69357666  0.72505379    -0.75300
O1128       O  0.99332269  0.78151812  0.72723906    -0.75300
O1129       O  0.50837401  0.77921266  0.78014753    -0.75200
O1130       O  0.50979562  0.69078168  0.77610781    -0.75200
O1131       O  0.05034273  0.72681314  0.75394256    -0.75200
O1132       O  0.46830108  0.74189295  0.79569780    -0.75300
Ni1133     Ni  0.99320515  0.73764838  0.72447986     1.25400
Ni1134     Ni  0.50964665  0.73484740  0.77992588     1.25400
C1135       C  0.44719341  0.74528404  0.77839477     0.87000
C1136       C  0.05577521  0.72664168  0.72580458     0.86900
C1137       C  0.50199135  0.67765897  0.75281410     0.84600
C1138       C  0.49991475  0.79520193  0.75823625     0.87100
O1139       O  0.33070521  0.72639908  0.74747347    -0.81600
O1140       O  0.19718453  0.72933877  0.71848674    -0.66300
O1141       O  0.27344061  0.75049768  0.72809045    -1.12900
C1142       C  0.23270473  0.77788775  0.82565764     1.05300
O1143       O  0.17038980  0.77141338  0.74279692    -0.79500
O1144       O  0.20546538  0.81168864  0.75892469    -0.67100
Ni1145     Ni  0.30945253  0.72179156  0.71280464     1.34900
C1146       C  0.23138384  0.81881726  0.75949278     0.84000
O1147       O  0.24366535  0.73252674  0.68127830    -0.80100
O1148       O  0.29324211  0.71366056  0.67572263    -0.90300
C1149       C  0.17241751  0.74720947  0.72591161     0.83600
O1150       O  0.29784673  0.68616386  0.72831340    -0.68500
O1151       O  0.20805908  0.78753013  0.81415834    -0.87800
C1152       C  0.27207778  0.67857377  0.73157286     0.84400
C1153       C  0.26738118  0.71944372  0.66566810     1.06000
H1154       H  0.22433410  0.72900768  0.77339670     0.37800
O1155       O  0.22659285  0.74765984  0.76392042    -1.10500
O1156       O  0.25434561  0.80014688  0.76611937    -0.67100
Ni1157     Ni  0.26507873  0.75669686  0.77001918     1.26300
O1158       O  0.24747304  0.69677211  0.72858895    -0.67400
O1159       O  0.25593524  0.76202763  0.81123053    -0.79700
C1160       C  0.32806512  0.74762050  0.76785405     0.83800
O1161       O  0.30346760  0.76545857  0.77577187    -0.66800
Ni1162     Ni  0.19157905  0.77823642  0.77725413     1.27400
Ni1163     Ni  0.23521742  0.73974208  0.72252453     1.26100
H1164       H  0.27425647  0.76990671  0.71932321     0.38300
O1165       O  0.25240326  0.74278636  0.95360538    -0.75200
O1166       O  0.25474859  0.71491019  0.52149889    -0.75200
O1167       O  0.20616285  0.73369725  0.48919627    -0.75300
O1168       O  0.29233296  0.74028690  0.48397386    -0.75300
O1169       O  0.28893669  0.78228004  0.00516623    -0.75200
O1170       O  0.20162291  0.78021175  0.01211619    -0.75200
O1171       O  0.24328631  0.75985932  0.54813073    -0.75200
O1172       O  0.24249019  0.79265466  0.96870897    -0.75300
Ni1173     Ni  0.24967801  0.73532190  0.48557317     1.25400
Ni1174     Ni  0.24492099  0.78313384  0.00902935     1.25400
C1175       C  0.24555498  0.77126736  0.94826892     0.87000
C1176       C  0.25158730  0.73055159  0.54625260     0.86900
C1177       C  0.18592595  0.75502639  0.50327650     0.87000
C1178       C  0.30879839  0.75769251  0.99743388     0.87100
O1179       O  0.22300330  0.96645289  0.75187860    -0.75200
O1180       O  0.23408267  0.54664850  0.74382480    -0.75200
O1181       O  0.22846207  0.50374297  0.70082951    -0.75300
O1182       O  0.22954746  0.00900818  0.79604730    -0.75300
O1183       O  0.27925727  0.99250869  0.79145296    -0.75200
O1184       O  0.27826130  0.48760326  0.69569166    -0.75200
O1185       O  0.28417145  0.53093627  0.73847037    -0.75200
O1186       O  0.27300839  0.95006269  0.74774868    -0.75300
Ni1187     Ni  0.22776082  0.00865549  0.75253519     1.25400
Ni1188     Ni  0.28051675  0.48878970  0.73910306     1.25400
C1189       C  0.24602986  0.94462088  0.75024826     0.87000
C1190       C  0.26089510  0.55243187  0.74036868     0.86900
C1191       C  0.25325680  0.49575743  0.68364960     0.87000
C1192       C  0.25442969  0.00126271  0.80843133     0.87100
C1193       C  0.27083816  0.64636441  0.73677894    -0.06900
C1194       C  0.29054622  0.62366867  0.71854897    -0.18000
C1195       C  0.28753017  0.59287498  0.71885553     0.10300
C1196       C  0.26489434  0.58441032  0.73856491    -0.06800
C1197       C  0.24560684  0.60701298  0.75724785    -0.18000
C1198       C  0.24854367  0.63782767  0.75676226     0.10400
S1199       S  0.31157609  0.56613772  0.69192610    -0.33000
S1200       S  0.22422129  0.66487964  0.78300593    -0.33000
H1201       H  0.24730101  0.68112163  0.78936118     0.28400
H1202       H  0.28855128  0.55026176  0.68455778     0.28400
H1203       H  0.30729350  0.63020281  0.70270220     0.19000
H1204       H  0.22851277  0.60054287  0.77273837     0.19000
C1205       C  0.23517776  0.85070228  0.75481906    -0.06900
C1206       C  0.25490648  0.86274368  0.77248849    -0.18000
C1207       C  0.25796644  0.89340908  0.77187978     0.10300
C1208       C  0.24174060  0.91267254  0.75246423    -0.06800
C1209       C  0.22201515  0.90087671  0.73455934    -0.18000
C1210       C  0.21877105  0.86993543  0.73530160     0.10400
S1211       S  0.28126093  0.90710654  0.79805901    -0.33000
S1212       S  0.19452320  0.85621633  0.71010471    -0.33000
H1213       H  0.21246063  0.82666550  0.70456396     0.28400
H1214       H  0.26085219  0.93485276  0.80578860     0.28400
H1215       H  0.26707341  0.84850520  0.78807048     0.19000
H1216       H  0.20973784  0.91559496  0.71940433     0.19000
C1217       C  0.26468020  0.71216035  0.63401348    -0.06900
C1218       C  0.29017974  0.71071416  0.61362378    -0.18000
C1219       C  0.28709553  0.71193279  0.58332097     0.10300
C1220       C  0.25795561  0.71540482  0.57344723    -0.06800
C1221       C  0.23320839  0.71267665  0.59306946    -0.18000
C1222       C  0.23630127  0.71031090  0.62330263     0.10400
S1223       S  0.32052324  0.71241369  0.55871656    -0.33000
S1224       S  0.20362341  0.70576722  0.64760061    -0.33000
H1225       H  0.18254570  0.70838556  0.62623880     0.28400
H1226       H  0.30991607  0.69928939  0.53378795     0.28400
H1227       H  0.31226582  0.71084291  0.62134156     0.19000
H1228       H  0.21107685  0.71460581  0.58491214     0.19000
C1229       C  0.23434663  0.78376381  0.85754098    -0.06900
C1230       C  0.20930062  0.78100219  0.87697507    -0.18000
C1231       C  0.21195177  0.77903213  0.90724239     0.10300
C1232       C  0.24024975  0.77936956  0.91816008    -0.06800
C1233       C  0.26457735  0.78480057  0.89932940    -0.18000
C1234       C  0.26182462  0.78748879  0.86903717     0.10400
S1235       S  0.17901345  0.77429887  0.93057538    -0.33000
S1236       S  0.29347278  0.79552219  0.84542266    -0.33000
H1237       H  0.31322412  0.79708378  0.86764486     0.28400
H1238       H  0.18520446  0.79254331  0.95465722     0.28400
H1239       H  0.18805603  0.77859594  0.86840096     0.19000
H1240       H  0.28594894  0.78582696  0.90825308     0.19000
C1241       C  0.08698988  0.72542149  0.71403204    -0.06900
C1242       C  0.09391319  0.75244862  0.70236894    -0.18000
C1243       C  0.12271078  0.75952286  0.70377807     0.10300
C1244       C  0.14495858  0.73853337  0.71609574    -0.06800
C1245       C  0.13918957  0.70950097  0.72340840    -0.18000
C1246       C  0.11021803  0.70284421  0.72279551     0.10400
S1247       S  0.12899997  0.79641348  0.69175476    -0.33000
S1248       S  0.10338630  0.66669936  0.73639572    -0.33000
H1249       H  0.07639261  0.66658758  0.72292922     0.28400
H1250       H  0.16052618  0.78761331  0.68537809     0.28400
H1251       H  0.07601735  0.76971308  0.69538917     0.19000
H1252       H  0.15653846  0.69305305  0.73228802     0.19000
C1253       C  0.41561392  0.75036342  0.79016347    -0.06900
C1254       C  0.39744187  0.77770046  0.78303066    -0.18000
C1255       C  0.36687786  0.77880064  0.77968999     0.10300
C1256       C  0.35495739  0.75154811  0.78225961    -0.06800
C1257       C  0.37207541  0.72561811  0.79344808    -0.18000
C1258       C  0.40225317  0.72516874  0.79836521     0.10400
S1259       S  0.34587465  0.81370186  0.76706383    -0.33000
S1260       S  0.42360449  0.69052798  0.81113633    -0.33000
H1261       H  0.44313667  0.70574303  0.82633287     0.28400
H1262       H  0.32078450  0.81458408  0.78783884     0.28400
H1263       H  0.40776047  0.79720715  0.77704320     0.19000
H1264       H  0.36253843  0.70498933  0.79639464     0.19000
C1265       C  0.40869723  0.75669803  0.99658256    -0.06900
C1266       C  0.37937626  0.78165771  0.51743312    -0.18000
C1267       C  0.34755450  0.78259339  0.51803431     0.10300
C1268       C  0.34318228  0.75781485  0.99755474    -0.06800
C1269       C  0.36479334  0.73579835  0.97971304    -0.18000
C1270       C  0.39669774  0.73480187  0.97927390     0.10400
S1271       S  0.32430821  0.80681504  0.54723362    -0.33000
S1272       S  0.42100404  0.70367827  0.95725773    -0.33000
H1273       H  0.44248301  0.69807063  0.97812165     0.28400
H1274       H  0.30854991  0.78363037  0.55647549     0.28400
H1275       H  0.38763222  0.79581318  0.53386146     0.19000
H1276       H  0.35682015  0.71875624  0.96605458     0.19000
C1277       C  0.15194281  0.75334723  0.50384394    -0.06900
C1278       C  0.14735528  0.73387566  0.98624406    -0.18000
C1279       C  0.11602095  0.73311802  0.98427421     0.10300
C1280       C  0.08766239  0.75070281  0.50131867    -0.06800
C1281       C  0.09812124  0.76743810  0.52435996    -0.18000
C1282       C  0.12930291  0.76916656  0.52578095     0.10400
S1283       S  0.10623207  0.70571547  0.95780657    -0.33000
S1284       S  0.13964949  0.79105242  0.55664072    -0.33000
H1285       H  0.11012219  0.80486024  0.56805168     0.28400
H1286       H  0.13382514  0.70092069  0.93981727     0.28400
H1287       H  0.16411404  0.71830952  0.97167354     0.19000
H1288       H  0.08155867  0.77968967  0.54140566     0.19000
C1289       C  0.25470646  0.00186026  0.84272173    -0.06900
C1290       C  0.27632791  0.98067755  0.85598807    -0.18000
C1291       C  0.27700218  0.97925769  0.88736788     0.10300
C1292       C  0.25588474  0.99970807  0.90759340    -0.06800
C1293       C  0.23340517  0.52039916  0.88566487    -0.18000
C1294       C  0.23290921  0.52135437  0.85421669     0.10400
S1295       S  0.30691049  0.95189824  0.90028220    -0.33000
S1296       S  0.20487815  0.55067590  0.84100834    -0.33000
H1297       H  0.22470860  0.55867403  0.81823949     0.28400
H1298       H  0.28672925  0.93435392  0.91326037     0.28400
H1299       H  0.29293191  0.96458796  0.84171167     0.19000
H1300       H  0.21625381  0.53607392  0.89976870     0.19000
C1301       C  0.25068702  0.50161583  0.58495893    -0.06900
C1302       C  0.27369228  0.97871671  0.60612972    -0.18000
C1303       C  0.27390050  0.97683148  0.63753439     0.10300
C1304       C  0.25285552  0.49685003  0.64953838    -0.06800
C1305       C  0.23497508  0.52199450  0.63721574    -0.18000
C1306       C  0.23387628  0.52474816  0.60599533     0.10400
S1307       S  0.29824692  0.94414930  0.65042215    -0.33000
S1308       S  0.20999978  0.55857317  0.59471009    -0.33000
H1309       H  0.19533501  0.54194179  0.57513479     0.28400
H1310       H  0.27753335  0.93943900  0.67398970     0.28400
H1311       H  0.28850160  0.96101198  0.59185309     0.19000
H1312       H  0.22169811  0.54012932  0.65218648     0.19000
C1313       C  0.49699306  0.89493230  0.75752860    -0.06900
C1314       C  0.02508755  0.87489685  0.75536379    -0.18000
C1315       C  0.02682105  0.84271831  0.75632731     0.10300
C1316       C  0.49928472  0.82948578  0.75914506    -0.06800
C1317       C  0.47383826  0.84917128  0.75024506    -0.18000
C1318       C  0.47225603  0.88137868  0.74964782     0.10400
S1319       S  0.06224218  0.82035317  0.76495993    -0.33000
S1320       S  0.43818223  0.90357578  0.73782993    -0.33000
H1321       H  0.45249716  0.92466520  0.72242502     0.28400
H1322       H  0.06035973  0.79385174  0.74758245     0.28400
H1323       H  0.04481968  0.88457895  0.75977290     0.19000
H1324       H  0.45486095  0.83933880  0.74365690     0.19000
C1325       C  0.50361817  0.57806614  0.74969087    -0.06900
C1326       C  0.47907488  0.59831766  0.73993839    -0.18000
C1327       C  0.47791007  0.63050644  0.74057697     0.10300
C1328       C  0.50178661  0.64352209  0.75147919    -0.06800
C1329       C  0.02185218  0.62411644  0.76058232    -0.18000
C1330       C  0.02210011  0.59212004  0.76096482     0.10400
S1331       S  0.44474386  0.65353776  0.72784609    -0.33000
S1332       S  0.05211029  0.56939883  0.77874768    -0.33000
H1333       H  0.03569680  0.54689579  0.78805218     0.28400
H1334       H  0.44355296  0.67905845  0.74773736     0.28400
H1335       H  0.46051771  0.58894958  0.73167075     0.19000
H1336       H  0.03967425  0.63340256  0.77040877     0.19000
C1337       C  0.99559371  0.84227972  0.97759294    -0.06900
C1338       C  0.52053553  0.85057546  0.95975315    -0.18000
C1339       C  0.52691752  0.88014678  0.95647140     0.10300
C1340       C  0.00727604  0.90204325  0.96810672    -0.06800
C1341       C  0.98325729  0.89780419  0.98835998    -0.18000
C1342       C  0.97425350  0.86884527  0.49867956     0.10400
S1343       S  0.55766343  0.88402399  0.92965585    -0.33000
S1344       S  0.94351542  0.86474022  0.52541342    -0.33000
H1345       H  0.93527490  0.83977763  0.50976871     0.28400
H1346       H  0.54427096  0.91334896  0.92154310     0.28400
H1347       H  0.53497091  0.83122361  0.94718703     0.19000
H1348       H  0.96682614  0.91777623  0.50889179     0.19000
C1349       C  0.49651452  0.66959884  0.52063135    -0.06900
C1350       C  0.97881488  0.66052232  0.54165550    -0.18000
C1351       C  0.97484103  0.63075972  0.54807091     0.10300
C1352       C  0.48849962  0.60853059  0.53130857    -0.06800
C1353       C  0.52244023  0.61239197  0.00321201    -0.18000
C1354       C  0.52683525  0.64250641  0.99883897     0.10400
S1355       S  0.94916810  0.62684482  0.57977799    -0.33000
S1356       S  0.55543157  0.64762697  0.97033976    -0.33000
H1357       H  0.56421295  0.67173435  0.98671680     0.28400
H1358       H  0.96483725  0.59794682  0.58679708     0.28400
H1359       H  0.96549672  0.67989641  0.55511847     0.19000
H1360       H  0.53497711  0.59363330  0.98843534     0.19000
C1361       C  0.34329435  0.51493074  0.97209031    -0.06900
C1362       C  0.34893477  0.54526505  0.97380247    -0.18000
C1363       C  0.37810186  0.55137112  0.96814154     0.10300
C1364       C  0.40253365  0.52659383  0.96165769    -0.06800
C1365       C  0.38469521  0.49871048  0.46069856    -0.18000
C1366       C  0.35537292  0.49234302  0.46391929     0.10400
S1367       S  0.38262893  0.59112058  0.96961722    -0.33000
S1368       S  0.34959618  0.45443311  0.45173193    -0.33000
H1369       H  0.37927883  0.44288578  0.43917451     0.28400
H1370       H  0.40804660  0.58639796  0.94858254     0.28400
H1371       H  0.33061572  0.56450142  0.98008940     0.19000
H1372       H  0.40323894  0.48035662  0.45260811     0.19000
C1373       C  0.10432547  0.98857184  0.53307906    -0.06900
C1374       C  0.12620840  0.96150902  0.52796704    -0.18000
C1375       C  0.15683939  0.96237650  0.52074386     0.10300
C1376       C  0.16614328  0.99132638  0.51926491    -0.06800
C1377       C  0.15216696  0.51580442  0.02329260    -0.18000
C1378       C  0.12167775  0.51477395  0.03076219     0.10400
S1379       S  0.18287752  0.92612363  0.51281387    -0.33000
S1380       S  0.09673861  0.54977533  0.04593423    -0.33000
H1381       H  0.11904006  0.56784970  0.04947469     0.28400
H1382       H  0.16110792  0.90719325  0.51042240     0.28400
H1383       H  0.11896899  0.93944166  0.52844383     0.19000
H1384       H  0.15990526  0.53735126  0.02696426     0.19000
C1385       C  0.54362416  0.99275972  0.89030344    -0.06900
C1386       C  0.05321982  0.96393618  0.86527436    -0.18000
C1387       C  0.04860665  0.96312995  0.83524562     0.10300
C1388       C  0.53133332  0.99016632  0.83133382    -0.06800
C1389       C  0.53012256  0.51321130  0.84359958    -0.18000
C1390       C  0.53457985  0.51455250  0.87346474     0.10400
S1391       S  0.06123161  0.92713921  0.81374883    -0.33000
S1392       S  0.52554322  0.55176688  0.89346036    -0.33000
H1393       H  0.54529197  0.54406472  0.91554316     0.28400
H1394       H  0.03492996  0.92871590  0.79890307     0.28400
H1395       H  0.06354279  0.94300966  0.87485983     0.19000
H1396       H  0.52029071  0.53405750  0.83357456     0.19000
C1397       C  0.95759100  0.50633266  0.61222601    -0.06900
C1398       C  0.97567237  0.97662978  0.61592099    -0.18000
C1399       C  0.97754397  0.96755268  0.64465646     0.10300
C1400       C  0.96408871  0.49012344  0.67001178    -0.06800
C1401       C  0.44968919  0.51775242  0.66650369    -0.18000
C1402       C  0.44569056  0.52667036  0.63777777     0.10400
S1403       S  0.99957592  0.93007879  0.64976077    -0.33000
S1404       S  0.42502817  0.56473116  0.63332557    -0.33000
H1405       H  0.40616581  0.55451595  0.61337751     0.28400
H1406       H  0.98783509  0.92778206  0.67905029     0.28400
H1407       H  0.98745502  0.96114078  0.59774463     0.19000
H1408       H  0.44043836  0.53392251  0.68508239     0.19000
O1409       O  0.55912315  0.46560281  0.51697833    -0.81600
O1410       O  0.94519195  0.50615839  0.46148322    -0.66300
O1411       O  0.52710834  0.00621324  0.49296158    -1.12900
C1412       C  0.47444739  0.01593416  0.08202192     1.05300
O1413       O  0.94092971  0.04461987  0.98506754    -0.79500
O1414       O  0.96587841  0.06762295  0.03021590    -0.67100
Ni1415     Ni  0.55399478  0.47408995  0.47679980     1.34900
C1416       C  0.99322275  0.07105043  0.02612724     0.84000
O1417       O  0.00126825  0.50012353  0.43551356    -0.80100
O1418       O  0.54912903  0.48246550  0.43628153    -0.90300
C1419       C  0.92938001  0.02544702  0.46965250     0.83600
O1420       O  0.53331262  0.44027208  0.47381488    -0.68500
O1421       O  0.95169231  0.02077070  0.06420658    -0.87800
C1422       C  0.50567533  0.43837673  0.47338888     0.84400
C1423       C  0.02794068  0.49048214  0.42330478     1.06000
H1424       H  0.97561423  0.48385698  0.01840243     0.37800
O1425       O  0.97985434  0.50367453  0.01302403    -1.10500
O1426       O  0.51398520  0.05301490  0.02762238    -0.67100
Ni1427     Ni  0.51816626  0.00909193  0.02981770     1.26300
O1428       O  0.98503208  0.45961339  0.47449712    -0.67400
O1429       O  0.50149898  0.01322364  0.06995635    -0.79700
C1430       C  0.57433354  0.48375266  0.03020042     0.83800
O1431       O  0.55733246  0.00984589  0.04247407    -0.66800
Ni1432     Ni  0.94655009  0.03286848  0.02443710     1.27400
Ni1433     Ni  0.98428321  0.50345187  0.47501018     1.26100
H1434       H  0.53315397  0.02532583  0.48768873     0.38300
O1435       O  0.53668428  0.48547958  0.27869685    -0.75200
O1436       O  0.51276240  0.98667199  0.20495421    -0.75200
O1437       O  0.52490263  0.03092579  0.24338762    -0.75300
O1438       O  0.52340672  0.44288222  0.23941156    -0.75300
O1439       O  0.97683469  0.43995837  0.25801958    -0.75200
O1440       O  0.97715276  0.02802110  0.25780548    -0.75200
O1441       O  0.96563467  0.98548158  0.21766254    -0.75200
O1442       O  0.98765282  0.48417341  0.29722696    -0.75300
Ni1443     Ni  0.52746237  0.98638208  0.24283917     1.25400
Ni1444     Ni  0.97543530  0.48401063  0.25824239     1.25400
C1445       C  0.01558958  0.47963261  0.30213078     0.87000
C1446       C  0.98653865  0.98128411  0.19628173     0.86900
C1447       C  0.00171873  0.03779144  0.25033108     0.87000
C1448       C  0.00120725  0.42037147  0.25019317     0.87100
O1449       O  0.75467186  0.47419284  0.45951829    -0.75200
O1450       O  0.76242785  0.47657290  0.04556473    -0.75200
O1451       O  0.71945878  0.47119547  0.00737149    -0.75300
O1452       O  0.80193399  0.48027518  0.99642525    -0.75300
O1453       O  0.78534870  0.03203520  0.48953990    -0.75200
O1454       O  0.70326773  0.02272794  0.50450576    -0.75200
O1455       O  0.75281096  0.02654740  0.03836472    -0.75200
O1456       O  0.74046564  0.02757860  0.45363062    -0.75300
Ni1457     Ni  0.76122795  0.47399680  0.00198437     1.25400
Ni1458     Ni  0.74376591  0.02906161  0.49701816     1.25400
C1459       C  0.74734413  0.49940404  0.44630741     0.87000
C1460       C  0.75592035  0.50228081  0.06154272     0.86900
C1461       C  0.69874631  0.49524566  0.01168841     0.87000
C1462       C  0.80282461  0.50768724  0.49536601     0.87100
O1463       O  0.49590797  0.29158634  0.46708539    -0.75200
O1464       O  0.50279601  0.20741837  0.48806527    -0.75200
O1465       O  0.95493134  0.24918967  0.47508643    -0.75300
O1466       O  0.54290264  0.24713502  0.47988439    -0.75300
O1467       O  0.53822492  0.26256625  0.02706593    -0.75200
O1468       O  0.95160468  0.26237079  0.01752857    -0.75200
O1469       O  0.99982229  0.21838295  0.02869961    -0.75200
O1470       O  0.99066550  0.30331756  0.01022466    -0.75300
Ni1471     Ni  0.49958055  0.24894901  0.47601766     1.25400
Ni1472     Ni  0.99497907  0.26137393  0.02103536     1.25400
C1473       C  0.98819029  0.31180957  0.48801153     0.87000
C1474       C  0.00189271  0.19876712  0.51188487     0.86900
C1475       C  0.93670004  0.25620767  0.49886433     0.87000
C1476       C  0.55347938  0.25430088  0.50430307     0.87100
O1477       O  0.94900626  0.23867167  0.24610260    -0.75200
O1478       O  0.52976142  0.23439608  0.21249312    -0.75200
O1479       O  0.48839910  0.19909938  0.23005480    -0.75300
O1480       O  0.48962317  0.28663609  0.22954196    -0.75300
O1481       O  0.00337584  0.27387002  0.27831817    -0.75200
O1482       O  0.00293454  0.18606652  0.27816312    -0.75200
O1483       O  0.54519470  0.23269466  0.25808473    -0.75200
O1484       O  0.96131888  0.23852122  0.29280071    -0.75300
Ni1485     Ni  0.48843780  0.24296856  0.22814790     1.25400
Ni1486     Ni  0.00336453  0.22996965  0.28012379     1.25400
C1487       C  0.94154868  0.24130821  0.27408222     0.87000
C1488       C  0.55078100  0.23126875  0.22990782     0.86900
C1489       C  0.99705875  0.17180220  0.25463189     0.84600
C1490       C  0.99766033  0.28846541  0.25488557     0.87100
O1491       O  0.81332089  0.22664888  0.26795885    -0.81600
O1492       O  0.69042938  0.23459910  0.22993286    -0.66300
O1493       O  0.76403215  0.25759031  0.24402030    -1.12900
C1494       C  0.72031527  0.28890246  0.33857945     1.05300
O1495       O  0.66139236  0.27586221  0.25409261    -0.79500
O1496       O  0.69760873  0.31666913  0.26738662    -0.67100
Ni1497     Ni  0.80099139  0.23173978  0.22892990     1.34900
C1498       C  0.72309205  0.32417377  0.27028148     0.84000
O1499       O  0.73909316  0.23803287  0.19488096    -0.80100
O1500       O  0.78961721  0.23599584  0.18933061    -0.90300
C1501       C  0.66518607  0.25195013  0.23639522     0.83600
O1502       O  0.78936530  0.19256701  0.23016573    -0.68500
O1503       O  0.69703683  0.29840836  0.32492453    -0.87800
C1504       C  0.76465695  0.18476784  0.23908966     0.84400
C1505       C  0.76390009  0.23758336  0.17906906     1.06000
H1506       H  0.71318096  0.23598956  0.28731510     0.37800
O1507       O  0.71633220  0.25438405  0.27771498    -1.10500
O1508       O  0.74429993  0.30657011  0.28121664    -0.67100
Ni1509     Ni  0.75450888  0.26337563  0.28576606     1.26300
O1510       O  0.74001023  0.20374161  0.24402527    -0.67400
O1511       O  0.74330079  0.27005400  0.32681806    -0.79700
C1512       C  0.81636381  0.24993272  0.28387628     0.83800
O1513       O  0.79375487  0.27068940  0.29224356    -0.66800
Ni1514     Ni  0.68162836  0.28586584  0.28837955     1.27400
Ni1515     Ni  0.72742611  0.24583356  0.23628525     1.26100
H1516       H  0.76429414  0.27726662  0.23561792     0.38300
O1517       O  0.74350825  0.25835099  0.45489268    -0.75200
O1518       O  0.75705099  0.22436560  0.03691289    -0.75200
O1519       O  0.71027535  0.22855123  0.00067592    -0.75300
O1520       O  0.79750687  0.23080592  0.99071098    -0.75300
O1521       O  0.78253678  0.28224715  0.51308528    -0.75200
O1522       O  0.69611658  0.27760527  0.52099095    -0.75200
O1523       O  0.74698743  0.27538296  0.04558341    -0.75200
O1524       O  0.73280435  0.30286043  0.48224941    -0.75300
Ni1525     Ni  0.75429147  0.22787382  0.99541698     1.25400
Ni1526     Ni  0.73896396  0.28152908  0.51785195     1.25400
C1527       C  0.73504704  0.28759079  0.45728748     0.87000
C1528       C  0.75383489  0.24824179  0.05467663     0.86900
C1529       C  0.69048055  0.25356110  0.00665567     0.87000
C1530       C  0.80226310  0.26026104  0.49939558     0.87100
O1531       O  0.72264160  0.46886009  0.25475578    -0.75200
O1532       O  0.73081968  0.05036938  0.24558993    -0.75200
O1533       O  0.72926542  0.00696535  0.20131569    -0.75300
O1534       O  0.72885649  0.51083307  0.29916934    -0.75300
O1535       O  0.77834079  0.49296187  0.29562038    -0.75200
O1536       O  0.77913815  0.99231114  0.19910679    -0.75200
O1537       O  0.78109892  0.03644930  0.24245420    -0.75200
O1538       O  0.77243065  0.45145460  0.25094293    -0.75300
Ni1539     Ni  0.72818653  0.51075680  0.25563167     1.25400
Ni1540     Ni  0.77888744  0.99392464  0.24272359     1.25400
C1541       C  0.74528684  0.44662481  0.25349578     0.87000
C1542       C  0.75725762  0.05717171  0.24349436     0.86900
C1543       C  0.75498120  0.99926621  0.18548259     0.87000
C1544       C  0.75318084  0.50209922  0.31211417     0.87100
C1545       C  0.76425354  0.15198941  0.24261301    -0.06900
C1546       C  0.78401205  0.13029437  0.22332003    -0.18000
C1547       C  0.78207069  0.09919646  0.22287758     0.10300
C1548       C  0.76015233  0.08945433  0.24246346    -0.06800
C1549       C  0.74084504  0.11092514  0.26218471    -0.18000
C1550       C  0.74315083  0.14192449  0.26301965     0.10400
S1551       S  0.80685679  0.07359792  0.19556676    -0.33000
S1552       S  0.71984674  0.16687911  0.29177208    -0.33000
H1553       H  0.74248315  0.18391622  0.29761374     0.28400
H1554       H  0.78484766  0.05634558  0.18829529     0.28400
H1555       H  0.80019204  0.13774729  0.20749938     0.19000
H1556       H  0.72452142  0.10331134  0.27775047     0.19000
C1557       C  0.72877640  0.35498075  0.26286271    -0.06900
C1558       C  0.75367668  0.36446965  0.27475447    -0.18000
C1559       C  0.75933725  0.39400763  0.27206538     0.10300
C1560       C  0.74022431  0.41500792  0.25631289    -0.06800
C1561       C  0.71571908  0.40566704  0.24363551    -0.18000
C1562       C  0.70998039  0.37575845  0.24636446     0.10400
S1563       S  0.78981945  0.40388648  0.29168447    -0.33000
S1564       S  0.67897613  0.36573773  0.22775944    -0.33000
H1565       H  0.69503440  0.33662621  0.21675586     0.28400
H1566       H  0.77252530  0.43184756  0.30414226     0.28400
H1567       H  0.76836137  0.34926633  0.28770764     0.19000
H1568       H  0.70121496  0.42163323  0.23118489     0.19000
C1569       C  0.76212016  0.24064164  0.14730629    -0.06900
C1570       C  0.78106691  0.21935311  0.12709340    -0.18000
C1571       C  0.77937492  0.22145749  0.09659241     0.10300
C1572       C  0.75767473  0.24487268  0.08624072    -0.06800
C1573       C  0.73915040  0.26634835  0.10660680    -0.18000
C1574       C  0.74139132  0.26474832  0.13689135     0.10400
S1575       S  0.80644734  0.19469862  0.07224544    -0.33000
S1576       S  0.71778324  0.29478732  0.16096690    -0.33000
H1577       H  0.73920597  0.29656474  0.18153340     0.28400
H1578       H  0.81228281  0.21685222  0.05223650     0.28400
H1579       H  0.79734027  0.20115931  0.13511125     0.19000
H1580       H  0.72279903  0.28467716  0.09888253     0.19000
C1581       C  0.72071447  0.29970588  0.36957082    -0.06900
C1582       C  0.69583281  0.29809427  0.38963106    -0.18000
C1583       C  0.69839678  0.29990679  0.42006560     0.10300
C1584       C  0.72652787  0.30257778  0.43042784    -0.06800
C1585       C  0.74989078  0.30866152  0.41060942    -0.18000
C1586       C  0.74701640  0.30781022  0.38010460     0.10400
S1587       S  0.66629983  0.29474787  0.44444786    -0.33000
S1588       S  0.77747604  0.31561177  0.35481725    -0.33000
H1589       H  0.79300913  0.32840877  0.37645271     0.28400
H1590       H  0.67470424  0.31006965  0.46938848     0.28400
H1591       H  0.67518239  0.29295672  0.38162602     0.19000
H1592       H  0.77135699  0.31100206  0.41869906     0.19000
C1593       C  0.58198903  0.22939193  0.21826984    -0.06900
C1594       C  0.58932251  0.25657806  0.20739687    -0.18000
C1595       C  0.61759745  0.26401292  0.21097553     0.10300
C1596       C  0.63902418  0.24297621  0.22421314    -0.06800
C1597       C  0.63328973  0.21360602  0.23022955    -0.18000
C1598       C  0.60464914  0.20675491  0.22781645     0.10400
S1599       S  0.62392563  0.30156968  0.20097547    -0.33000
S1600       S  0.59705476  0.17070862  0.24104172    -0.33000
H1601       H  0.57023894  0.17105987  0.22715122     0.28400
H1602       H  0.65567167  0.29364585  0.19694561     0.28400
H1603       H  0.57178499  0.27391109  0.19993045     0.19000
H1604       H  0.65008467  0.19717943  0.23985711     0.19000
C1605       C  0.90954048  0.24736822  0.28454977    -0.06900
C1606       C  0.89139119  0.27394922  0.27565782    -0.18000
C1607       C  0.85985519  0.27729176  0.27871583     0.10300
C1608       C  0.84675245  0.25311700  0.29018933    -0.06800
C1609       C  0.86483786  0.22776948  0.30118402    -0.18000
C1610       C  0.89616322  0.22491184  0.29898929     0.10400
S1611       S  0.83691186  0.31034823  0.26446754    -0.33000
S1612       S  0.91785960  0.19025780  0.31135170    -0.33000
H1613       H  0.93710310  0.20571258  0.32666860     0.28400
H1614       H  0.86061133  0.32624241  0.25701691     0.28400
H1615       H  0.90203410  0.29108670  0.26470782     0.19000
H1616       H  0.85459364  0.20916480  0.30979379     0.19000
C1617       C  0.90236838  0.25667808  0.49850807    -0.06900
C1618       C  0.88549822  0.27689919  0.01069183    -0.18000
C1619       C  0.85365372  0.27786095  0.01165239     0.10300
C1620       C  0.83661102  0.26001551  0.49946246    -0.06800
C1621       C  0.85737528  0.24136338  0.47800628    -0.18000
C1622       C  0.88935532  0.23917532  0.47753255     0.10400
S1623       S  0.83015241  0.30546001  0.03805878    -0.33000
S1624       S  0.91228340  0.21196515  0.45040220    -0.33000
H1625       H  0.93277281  0.19964595  0.47048326     0.28400
H1626       H  0.81223510  0.28450321  0.04859931     0.28400
H1627       H  0.89374802  0.29329875  0.02489163     0.19000
H1628       H  0.84866566  0.22768306  0.46151395     0.19000
C1629       C  0.65623226  0.25288181  0.00789051    -0.06900
C1630       C  0.64179595  0.23601887  0.48710930    -0.18000
C1631       C  0.61054645  0.23511467  0.48532543     0.10300
C1632       C  0.59131529  0.25359127  0.00484919    -0.06800
C1633       C  0.60242836  0.27046007  0.02751175    -0.18000
C1634       C  0.63404193  0.27067024  0.02896571     0.10400
S1635       S  0.60050516  0.20968004  0.45705433    -0.33000
S1636       S  0.64596765  0.29236066  0.05903312    -0.33000
H1637       H  0.61720447  0.30161647  0.07458988     0.28400
H1638       H  0.63005994  0.19674037  0.44504004     0.28400
H1639       H  0.65837565  0.22246566  0.47085320     0.19000
H1640       H  0.58615579  0.28412215  0.04397855     0.19000
C1641       C  0.75206449  0.50226517  0.34653354    -0.06900
C1642       C  0.76951115  0.47815550  0.36063380    -0.18000
C1643       C  0.76796028  0.47628325  0.39214734     0.10300
C1644       C  0.74895389  0.49940937  0.41178493    -0.06800
C1645       C  0.72446226  0.02023395  0.38879794    -0.18000
C1646       C  0.72407398  0.02121994  0.35721601     0.10400
S1647       S  0.79219107  0.44411695  0.40585771    -0.33000
S1648       S  0.69197609  0.04534183  0.34397980    -0.33000
H1649       H  0.70949112  0.05864938  0.32280867     0.28400
H1650       H  0.76765443  0.43178543  0.41834776     0.28400
H1651       H  0.78441668  0.46005928  0.34692974     0.19000
H1652       H  0.70547833  0.03332550  0.40286650     0.19000
C1653       C  0.75924855  0.00168349  0.08607356    -0.06900
C1654       C  0.77154449  0.47693832  0.10972145    -0.18000
C1655       C  0.77190474  0.47560628  0.14119850     0.10300
C1656       C  0.75675407  0.99905731  0.15108279    -0.06800
C1657       C  0.73476592  0.01883128  0.13684193    -0.18000
C1658       C  0.73552603  0.02008077  0.10533785     0.10400
S1659       S  0.79136282  0.44046708  0.15476295    -0.33000
S1660       S  0.70420421  0.04449272  0.09107221    -0.33000
H1661       H  0.70098310  0.02289442  0.06839815     0.28400
H1662       H  0.77045837  0.44044310  0.17958992     0.28400
H1663       H  0.78345445  0.45724860  0.09577206     0.19000
H1664       H  0.71639302  0.03349691  0.15042992     0.19000
C1665       C  0.00065654  0.38652492  0.25029963    -0.06900
C1666       C  0.52391997  0.37932407  0.25741316    -0.18000
C1667       C  0.52457380  0.34734049  0.25877724     0.10300
C1668       C  0.99930084  0.32214301  0.25388497    -0.06800
C1669       C  0.97849813  0.34129795  0.23814868    -0.18000
C1670       C  0.97904039  0.37293732  0.23606134     0.10400
S1671       S  0.55858247  0.32443744  0.27000641    -0.33000
S1672       S  0.95219159  0.39440855  0.21386406    -0.33000
H1673       H  0.97109651  0.41451437  0.20364063     0.28400
H1674       H  0.55709038  0.29775535  0.25272235     0.28400
H1675       H  0.54324778  0.38868737  0.26375517     0.19000
H1676       H  0.96162151  0.33150755  0.22720799     0.19000
C1677       C  0.00133917  0.07202199  0.25184389    -0.06900
C1678       C  0.97574719  0.09183305  0.24344175    -0.18000
C1679       C  0.97357154  0.12409752  0.24434126     0.10300
C1680       C  0.99751650  0.13769358  0.25411122    -0.06800
C1681       C  0.52029317  0.13072940  0.26455363    -0.18000
C1682       C  0.52210305  0.09849900  0.26484898     0.10400
S1683       S  0.93916704  0.14631525  0.23309671    -0.33000
S1684       S  0.55306415  0.07695855  0.28222702    -0.33000
H1685       H  0.53614390  0.05632583  0.29512070     0.28400
H1686       H  0.93977323  0.17363120  0.24977239     0.28400
H1687       H  0.95713970  0.08203626  0.23586722     0.19000
H1688       H  0.53797739  0.14091580  0.27361601     0.19000
C1689       C  0.48982919  0.34572489  0.47998383    -0.06900
C1690       C  0.01009274  0.35015724  0.45984299    -0.18000
C1691       C  0.01493095  0.38010343  0.45582906     0.10300
C1692       C  0.49791726  0.40710529  0.47227837    -0.06800
C1693       C  0.47429649  0.40096355  0.49196877    -0.18000
C1694       C  0.47649971  0.37131016  0.00242972     0.10400
S1695       S  0.04432760  0.38492312  0.42785532    -0.33000
S1696       S  0.45112330  0.36691275  0.03419008    -0.33000
H1697       H  0.43854057  0.34379655  0.02014397     0.28400
H1698       H  0.03007127  0.41421729  0.42036674     0.28400
H1699       H  0.02487788  0.33114778  0.44711807     0.19000
H1700       H  0.47225916  0.41976614  0.01389750     0.19000
C1701       C  0.00625947  0.16452341  0.01510181    -0.06900
C1702       C  0.48220240  0.16241306  0.04150986    -0.18000
C1703       C  0.47848888  0.13233942  0.04684164     0.10300
C1704       C  0.99960422  0.10298596  0.02509620    -0.06800
C1705       C  0.01691626  0.11091385  0.50716233    -0.18000
C1706       C  0.02112136  0.14102332  0.50207380     0.10400
S1707       S  0.44929386  0.12785075  0.07514763    -0.33000
S1708       S  0.05014915  0.14567167  0.47367580    -0.33000
H1709       H  0.05778475  0.17181619  0.48784317     0.28400
H1710       H  0.46541685  0.10057315  0.08524862     0.28400
H1711       H  0.46690333  0.18148173  0.05363026     0.19000
H1712       H  0.03020406  0.09185180  0.49325586     0.19000
C1713       C  0.83791371  0.01187751  0.47754701    -0.06900
C1714       C  0.84405631  0.04203027  0.47725117    -0.18000
C1715       C  0.87349750  0.04744893  0.47174975     0.10300
C1716       C  0.89774995  0.02223434  0.46710650    -0.06800
C1717       C  0.89467914  0.99626328  0.95305604    -0.18000
C1718       C  0.86523915  0.99039571  0.95786926     0.10400
S1719       S  0.87854066  0.08699261  0.47081309    -0.33000
S1720       S  0.85760605  0.95384246  0.94403291    -0.33000
H1721       H  0.88521150  0.94412377  0.92649160     0.28400
H1722       H  0.90400249  0.08082232  0.44982687     0.28400
H1723       H  0.82584188  0.06175283  0.48156268     0.19000
H1724       H  0.91244661  0.97808821  0.94297268     0.19000
C1725       C  0.60675192  0.48514755  0.02790446    -0.06900
C1726       C  0.62448997  0.47063432  0.00246320    -0.18000
C1727       C  0.65446580  0.47405644  0.99649357     0.10300
C1728       C  0.66726352  0.49165353  0.01677524    -0.06800
C1729       C  0.64398732  0.02026026  0.52299388    -0.18000
C1730       C  0.61367359  0.01987956  0.53203428     0.10400
S1731       S  0.67551161  0.45783015  0.96196718    -0.33000
S1732       S  0.58715688  0.05611583  0.53710783    -0.33000
H1733       H  0.60808316  0.07578843  0.53184842     0.28400
H1734       H  0.65150948  0.44732549  0.94926096     0.28400
H1735       H  0.61451758  0.45754432  0.98650822     0.19000
H1736       H  0.65079867  0.04228813  0.52017653     0.19000
C1737       C  0.03186489  0.49244446  0.39142337    -0.06900
C1738       C  0.54602057  0.47106872  0.37353747    -0.18000
C1739       C  0.54309909  0.46890503  0.34319178     0.10300
C1740       C  0.02311561  0.48365413  0.33214843    -0.06800
C1741       C  0.01441141  0.00949814  0.34669238    -0.18000
C1742       C  0.02066525  0.01361396  0.37583445     0.10400
S1743       S  0.56063386  0.43344470  0.32265873    -0.33000
S1744       S  0.00716045  0.05113931  0.39445795    -0.33000
H1745       H  0.02895362  0.04823185  0.41514527     0.28400
H1746       H  0.53690551  0.43226991  0.30466943     0.28400
H1747       H  0.55804972  0.45139792  0.38381321     0.19000
H1748       H  0.00146642  0.02850688  0.33621480     0.19000
C1749       C  0.47146712  0.00622007  0.11239001    -0.06900
C1750       C  0.48586694  0.48360548  0.11502214    -0.18000
C1751       C  0.48904779  0.47590386  0.14401330     0.10300
C1752       C  0.47598351  0.99059196  0.17095680    -0.06800
C1753       C  0.95763938  0.01108561  0.16009078    -0.18000
C1754       C  0.95482781  0.02006185  0.13110776     0.10400
S1755       S  0.51415883  0.44038146  0.14976657    -0.33000
S1756       S  0.92878565  0.05512690  0.12626560    -0.33000
H1757       H  0.94612871  0.06448854  0.10253438     0.28400
H1758       H  0.49983339  0.43545016  0.17738353     0.28400
H1759       H  0.49906337  0.46850575  0.09728558     0.19000
H1760       H  0.94503086  0.02584346  0.17835459     0.19000
O1761       O  0.56548872  0.46220626  0.01616986    -0.81600
O1762       O  0.95165850  0.50352972  0.96069796    -0.66300
O1763       O  0.53315969  0.00460270  0.98882477    -1.12900
C1764       C  0.46765327  0.01616311  0.58583277     1.05300
O1765       O  0.93528331  0.04658960  0.48667862    -0.79500
O1766       O  0.95995924  0.07137574  0.53121171    -0.67100
Ni1767     Ni  0.56262974  0.46734602  0.97510818     1.34900
C1768       C  0.98757480  0.07395977  0.52983816     0.84000
O1769       O  0.00680529  0.49953271  0.93083789    -0.80100
O1770       O  0.55983122  0.47236851  0.93356631    -0.90300
C1771       C  0.93408372  0.02507621  0.96682580     0.83600
O1772       O  0.53915966  0.43574152  0.97448715    -0.68500
O1773       O  0.94374891  0.02710167  0.56691702    -0.87800
C1774       C  0.51127914  0.43616765  0.97262541     0.84400
C1775       C  0.03316235  0.48909974  0.91785596     1.06000
H1776       H  0.96337450  0.48710081  0.52092348     0.37800
O1777       O  0.96920649  0.50637219  0.51588258    -1.10500
O1778       O  0.50808357  0.05370874  0.53318347    -0.67100
Ni1779     Ni  0.51199397  0.00956258  0.53408504     1.26300
O1780       O  0.99370704  0.45769966  0.97022097    -0.67400
O1781       O  0.49499161  0.01221827  0.57419936    -0.79700
C1782       C  0.56731453  0.48646817  0.53262751     0.83800
O1783       O  0.55118732  0.00981919  0.54720246    -0.66800
Ni1784     Ni  0.94006554  0.03703143  0.52672154     1.27400
Ni1785     Ni  0.99193333  0.50174749  0.97135459     1.26100
H1786       H  0.53954542  0.02340991  0.98305947     0.38300
O1787       O  0.54293056  0.47917334  0.77479432    -0.75200
O1788       O  0.50610922  0.98059149  0.70494166    -0.75200
O1789       O  0.52240002  0.02524001  0.73995478    -0.75300
O1790       O  0.52557926  0.43681127  0.73818700    -0.75300
O1791       O  0.97325180  0.44846144  0.75988503    -0.75200
O1792       O  0.97463826  0.03634076  0.75528046    -0.75200
O1793       O  0.95791096  0.99202869  0.72050369    -0.75200
O1794       O  0.98972617  0.49193133  0.79619950    -0.75300
Ni1795     Ni  0.52356860  0.98105331  0.74147065     1.25400
Ni1796     Ni  0.97198474  0.49266495  0.75989975     1.25400
C1797       C  0.01837030  0.48667252  0.79737654     0.87000
C1798       C  0.97607067  0.98659122  0.69699343     0.86900
C1799       C  0.99819224  0.04565091  0.74373551     0.87000
C1800       C  0.99649280  0.42881173  0.74870932     0.87100
O1801       O  0.75924394  0.47507234  0.95865692    -0.75200
O1802       O  0.75877569  0.47446821  0.54596432    -0.75200
O1803       O  0.71539201  0.46860383  0.50887841    -0.75300
O1804       O  0.79718600  0.48045483  0.49691780    -0.75300
O1805       O  0.79027319  0.03111664  0.98739264    -0.75200
O1806       O  0.70935500  0.01963018  0.00287178    -0.75200
O1807       O  0.74794091  0.02689606  0.54003801    -0.75200
O1808       O  0.74622949  0.02342088  0.95201865    -0.75300
Ni1809     Ni  0.75698529  0.47269256  0.50270349     1.25400
Ni1810     Ni  0.74921256  0.02690221  0.99520513     1.25400
C1811       C  0.75093825  0.50019400  0.94554655     0.87000
C1812       C  0.75062463  0.49962782  0.56245267     0.86900
C1813       C  0.69403664  0.49214206  0.51320728     0.87000
C1814       C  0.80813497  0.50715199  0.99367482     0.87100
O1815       O  0.49750159  0.29264766  0.96824505    -0.75200
O1816       O  0.50722088  0.20764897  0.98604914    -0.75200
O1817       O  0.95977688  0.24765947  0.96966412    -0.75300
O1818       O  0.54597430  0.24874384  0.97906665    -0.75300
O1819       O  0.53462938  0.26293106  0.52743432    -0.75200
O1820       O  0.94777155  0.26318784  0.52310610    -0.75200
O1821       O  0.99695648  0.21981455  0.53299037    -0.75200
O1822       O  0.98581684  0.30484422  0.51510424    -0.75300
Ni1823     Ni  0.50266287  0.24967983  0.97554513     1.25400
Ni1824     Ni  0.99123295  0.26282402  0.52563559     1.25400
C1825       C  0.99410279  0.31015179  0.98315477     0.87000
C1826       C  0.00534977  0.19711457  0.00777428     0.86900
C1827       C  0.94106800  0.25502524  0.99312251     0.87000
C1828       C  0.55685606  0.25500881  0.00359248     0.87100
O1829       O  0.95121682  0.24669743  0.73883172    -0.75200
O1830       O  0.53195504  0.22970771  0.70814022    -0.75200
O1831       O  0.49054305  0.19429105  0.72595465    -0.75300
O1832       O  0.49239339  0.28171696  0.72730047    -0.75300
O1833       O  0.00781942  0.27961935  0.76913610    -0.75200
O1834       O  0.00627856  0.19210380  0.76665513    -0.75200
O1835       O  0.54881210  0.22657444  0.75308460    -0.75200
O1836       O  0.96596511  0.24468958  0.78462913    -0.75300
Ni1837     Ni  0.49097320  0.23818522  0.72495752     1.25400
Ni1838     Ni  0.00754146  0.23575870  0.76959297     1.25400
C1839       C  0.94516448  0.24887890  0.76699396     0.87000
C1840       C  0.55359874  0.22590436  0.72483845     0.86900
C1841       C  0.99851637  0.17881152  0.74348229     0.84600
C1842       C  0.00010421  0.29534988  0.74690251     0.87100
O1843       O  0.82984408  0.23548395  0.73885958    -0.81600
O1844       O  0.69634127  0.22188803  0.71548529    -0.66300
O1845       O  0.77033646  0.24820235  0.72561490    -1.12900
C1846       C  0.72596826  0.26971136  0.82333595     1.05300
O1847       O  0.67020251  0.26598651  0.73588542    -0.79500
O1848       O  0.70020927  0.30718958  0.75934740    -0.67100
Ni1849     Ni  0.80655908  0.22008042  0.71033012     1.34900
C1850       C  0.72575366  0.31508633  0.76009581     0.84000
O1851       O  0.74242625  0.22814698  0.67869354    -0.80100
O1852       O  0.78902142  0.20153329  0.67818270    -0.90300
C1853       C  0.67176643  0.24072084  0.72076322     0.83600
O1854       O  0.79769163  0.18930993  0.73572159    -0.68500
O1855       O  0.70110312  0.27776965  0.81171781    -0.87800
C1856       C  0.77369986  0.17806226  0.73601862     0.84400
C1857       C  0.76504107  0.21023379  0.66569046     1.06000
H1858       H  0.72219762  0.22365373  0.77001144     0.37800
O1859       O  0.72394964  0.24256800  0.76073638    -1.10500
O1860       O  0.74947963  0.29649121  0.76500929    -0.67100
Ni1861     Ni  0.76144948  0.25308198  0.76799418     1.26300
O1862       O  0.74915656  0.19205998  0.72686276    -0.67400
O1863       O  0.75096199  0.25764038  0.80908111    -0.79700
C1864       C  0.82513053  0.25226559  0.76280358     0.83800
O1865       O  0.79929040  0.26256862  0.77582310    -0.66800
Ni1866     Ni  0.68747456  0.27109441  0.77303220     1.27400
Ni1867     Ni  0.73340171  0.23470524  0.71978631     1.26100
H1868       H  0.77025131  0.26787005  0.71706762     0.38300
O1869       O  0.75082604  0.23482978  0.95463380    -0.75200
O1870       O  0.75493294  0.21283310  0.52330559    -0.75200
O1871       O  0.70595484  0.23396511  0.49289488    -0.75300
O1872       O  0.79266409  0.23797609  0.48599598    -0.75300
O1873       O  0.78712713  0.28160515  0.99936106    -0.75200
O1874       O  0.69997660  0.27926852  0.01017367    -0.75200
O1875       O  0.74559403  0.25705111  0.55116349    -0.75200
O1876       O  0.73994063  0.28582135  0.96341743    -0.75300
Ni1877     Ni  0.74964301  0.23433037  0.48824319     1.25400
Ni1878     Ni  0.74319381  0.28229774  0.00488922     1.25400
C1879       C  0.74295144  0.26190146  0.94571864     0.87000
C1880       C  0.75274948  0.22761597  0.54837003     0.86900
C1881       C  0.68643473  0.25524592  0.50792307     0.87000
C1882       C  0.80696984  0.25650262  0.99435887     0.87100
O1883       O  0.71741053  0.46418303  0.75589546    -0.75200
O1884       O  0.73671176  0.04818147  0.74788346    -0.75200
O1885       O  0.72950949  0.00690544  0.70335397    -0.75300
O1886       O  0.72553680  0.50639185  0.79934310    -0.75300
O1887       O  0.77484347  0.48797012  0.79541202    -0.75200
O1888       O  0.77872529  0.98746539  0.69916635    -0.75200
O1889       O  0.78634205  0.02960977  0.74304973    -0.75200
O1890       O  0.76704880  0.44577743  0.75207524    -0.75300
Ni1891     Ni  0.72419338  0.50578505  0.75597017     1.25400
Ni1892     Ni  0.77992627  0.98809796  0.74268504     1.25400
C1893       C  0.73967225  0.44155086  0.75478558     0.87000
C1894       C  0.76412850  0.05233622  0.74556368     0.86900
C1895       C  0.75432484  0.99701798  0.68660989     0.87000
C1896       C  0.75001542  0.49797354  0.81209745     0.87100
C1897       C  0.77530366  0.14602405  0.74357171    -0.06900
C1898       C  0.79477551  0.12349588  0.72498708    -0.18000
C1899       C  0.79207182  0.09258031  0.72549793     0.10300
C1900       C  0.76987027  0.08393346  0.74558931    -0.06800
C1901       C  0.75181440  0.10627868  0.76558616    -0.18000
C1902       C  0.75461297  0.13718541  0.76502031     0.10400
S1903       S  0.81540522  0.06604055  0.69795118    -0.33000
S1904       S  0.73173564  0.16415185  0.79238392    -0.33000
H1905       H  0.75319648  0.18355544  0.79409116     0.28400
H1906       H  0.79183003  0.05112345  0.69022566     0.28400
H1907       H  0.81056623  0.13032928  0.70833071     0.19000
H1908       H  0.73533712  0.09962888  0.78164145     0.19000
C1909       C  0.72826050  0.34767431  0.75740772    -0.06900
C1910       C  0.74915304  0.35881104  0.77426762    -0.18000
C1911       C  0.75178790  0.38962954  0.77505335     0.10300
C1912       C  0.73423468  0.40999188  0.75744128    -0.06800
C1913       C  0.71281000  0.39932475  0.74091601    -0.18000
C1914       C  0.70970499  0.36829888  0.74058309     0.10400
S1915       S  0.77668419  0.40185949  0.80045048    -0.33000
S1916       S  0.68291010  0.35636424  0.71723744    -0.33000
H1917       H  0.70150208  0.32807153  0.70728639     0.28400
H1918       H  0.75743424  0.43009315  0.80922756     0.28400
H1919       H  0.76289385  0.34359319  0.78797042     0.19000
H1920       H  0.69926977  0.41493555  0.72736163     0.19000
C1921       C  0.76399514  0.20145348  0.63434899    -0.06900
C1922       C  0.78994501  0.20157912  0.61510765    -0.18000
C1923       C  0.78748761  0.20614086  0.58515669     0.10300
C1924       C  0.75854914  0.21088227  0.57472335    -0.06800
C1925       C  0.73352036  0.20579997  0.59279962    -0.18000
C1926       C  0.73610100  0.20039174  0.62263473     0.10400
S1927       S  0.82136039  0.20931474  0.56231462    -0.33000
S1928       S  0.70336723  0.19424877  0.64583400    -0.33000
H1929       H  0.68424294  0.19289952  0.62301143     0.28400
H1930       H  0.81106000  0.20074286  0.53533951     0.28400
H1931       H  0.81164148  0.20137864  0.62382615     0.19000
H1932       H  0.71157297  0.20855813  0.58413869     0.19000
C1933       C  0.72584182  0.27198821  0.85528835    -0.06900
C1934       C  0.71598551  0.24837006  0.87043051    -0.18000
C1935       C  0.72102432  0.24477907  0.89992478     0.10300
C1936       C  0.73616138  0.26548496  0.91482414    -0.06800
C1937       C  0.74487356  0.29008101  0.89984066    -0.18000
C1938       C  0.74036728  0.29315548  0.86985770     0.10400
S1939       S  0.70693819  0.21366579  0.91715226    -0.33000
S1940       S  0.75383874  0.32333920  0.85005785    -0.33000
H1941       H  0.76933997  0.33391634  0.87294548     0.28400
H1942       H  0.69744856  0.23174444  0.94342300     0.28400
H1943       H  0.70528969  0.23185116  0.85881737     0.19000
H1944       H  0.75615991  0.30611192  0.91131743     0.19000
C1945       C  0.58470855  0.22315117  0.71213719    -0.06900
C1946       C  0.59272857  0.24908762  0.69912164    -0.18000
C1947       C  0.62245335  0.25406069  0.69846889     0.10300
C1948       C  0.64417178  0.23249958  0.71082414    -0.06800
C1949       C  0.63702788  0.20439479  0.71942101    -0.18000
C1950       C  0.60730301  0.19959346  0.72037495     0.10400
S1951       S  0.63094884  0.28911582  0.68373433    -0.33000
S1952       S  0.59883496  0.16461899  0.73533323    -0.33000
H1953       H  0.57143274  0.16552340  0.72234846     0.28400
H1954       H  0.66200223  0.27764483  0.67639458     0.28400
H1955       H  0.57532635  0.26703651  0.69238338     0.19000
H1956       H  0.65393438  0.18745803  0.72829338     0.19000
C1957       C  0.91342024  0.25615647  0.77843583    -0.06900
C1958       C  0.89578971  0.28220418  0.76792627    -0.18000
C1959       C  0.86473683  0.28405531  0.76694795     0.10300
C1960       C  0.85162126  0.25901172  0.77596966    -0.06800
C1961       C  0.86840887  0.23514743  0.79025604    -0.18000
C1962       C  0.89930413  0.23373490  0.79206019     0.10400
S1963       S  0.84391437  0.31654610  0.75015962    -0.33000
S1964       S  0.92017265  0.20031594  0.80733143    -0.33000
H1965       H  0.93923285  0.21680597  0.82176581     0.28400
H1966       H  0.81555342  0.31465283  0.76459575     0.28400
H1967       H  0.90667105  0.29970366  0.75786910     0.19000
H1968       H  0.85809155  0.21599617  0.79734419     0.19000
C1969       C  0.90681340  0.25518906  0.99237395    -0.06900
C1970       C  0.88164774  0.27521921  0.52001874    -0.18000
C1971       C  0.84973586  0.27676545  0.52102328     0.10300
C1972       C  0.84125227  0.25693592  0.99356254    -0.06800
C1973       C  0.86256037  0.23514291  0.97523935    -0.18000
C1974       C  0.89449584  0.23392051  0.97457510     0.10400
S1975       S  0.82738593  0.29979964  0.55154774    -0.33000
S1976       S  0.91837321  0.20330916  0.95158010    -0.33000
H1977       H  0.93959576  0.19626899  0.97248258     0.28400
H1978       H  0.81002920  0.27733255  0.55898929     0.28400
H1979       H  0.89041719  0.28863075  0.53669090     0.19000
H1980       H  0.85430177  0.21843170  0.96142013     0.19000
C1981       C  0.65226839  0.25433575  0.50888116    -0.06900
C1982       C  0.64518035  0.23445200  0.98667997    -0.18000
C1983       C  0.61373981  0.23551807  0.98405848     0.10300
C1984       C  0.58778697  0.25316155  0.50578975    -0.06800
C1985       C  0.59827896  0.27072634  0.52824965    -0.18000
C1986       C  0.62965064  0.27145802  0.53013226     0.10400
S1987       S  0.60313002  0.21282222  0.95390309    -0.33000
S1988       S  0.64018486  0.29384415  0.56054832    -0.33000
H1989       H  0.61163518  0.30008817  0.57691465     0.28400
H1990       H  0.63183531  0.20560984  0.93787153     0.28400
H1991       H  0.66129484  0.21897523  0.97166794     0.19000
H1992       H  0.58164799  0.28443764  0.54437474     0.19000
C1993       C  0.74978279  0.49949857  0.84646988    -0.06900
C1994       C  0.77478226  0.48382916  0.86015592    -0.18000
C1995       C  0.77593498  0.48438144  0.89156132     0.10300
C1996       C  0.75110636  0.49985076  0.91137175    -0.06800
C1997       C  0.73273121  0.01920912  0.88884737    -0.18000
C1998       C  0.73217330  0.02070076  0.85747396     0.10400
S1999       S  0.81099099  0.46670934  0.90494752    -0.33000
S2000       S  0.70579273  0.05179364  0.84465239    -0.33000
H2001       H  0.72634927  0.05871887  0.82198185     0.28400
H2002       H  0.81018170  0.48961638  0.92770270     0.28400
H2003       H  0.79417113  0.47133825  0.84620721     0.19000
H2004       H  0.71701664  0.03616829  0.90312522     0.19000
C2005       C  0.75468871  0.00074904  0.58737622    -0.06900
C2006       C  0.77290498  0.47831578  0.60948210    -0.18000
C2007       C  0.77352391  0.47607208  0.64078613     0.10300
C2008       C  0.75473440  0.99727049  0.65236503    -0.06800
C2009       C  0.73993103  0.02348327  0.63912062    -0.18000
C2010       C  0.73962686  0.02548139  0.60776081     0.10400
S2011       S  0.80267514  0.44719451  0.65292109    -0.33000
S2012       S  0.71843941  0.06038109  0.59550441    -0.33000
H2013       H  0.70191222  0.04475896  0.57689948     0.28400
H2014       H  0.78301595  0.43633066  0.67399964     0.28400
H2015       H  0.79027521  0.46344151  0.59490083     0.19000
H2016       H  0.72826916  0.04297323  0.65348826     0.19000
C2017       C  0.99645474  0.39481428  0.74859174    -0.06900
C2018       C  0.52762458  0.37308413  0.75513801    -0.18000
C2019       C  0.52842280  0.34107171  0.75569095     0.10300
C2020       C  0.99972658  0.32939523  0.74784899    -0.06800
C2021       C  0.97393790  0.34908132  0.73974429    -0.18000
C2022       C  0.97181958  0.38133361  0.74035394     0.10400
S2023       S  0.56351856  0.31742560  0.76350881    -0.33000
S2024       S  0.93697112  0.40353471  0.73009764    -0.33000
H2025       H  0.94963719  0.42703077  0.71706144     0.28400
H2026       H  0.56054608  0.29151816  0.74576928     0.28400
H2027       H  0.54773563  0.38206786  0.75962436     0.19000
H2028       H  0.95497239  0.33922366  0.73315317     0.19000
C2029       C  0.99863084  0.07971862  0.74346970    -0.06900
C2030       C  0.97279234  0.10029004  0.73654578    -0.18000
C2031       C  0.97206298  0.13240590  0.73612857     0.10300
C2032       C  0.99775261  0.14490393  0.74292867    -0.06800
C2033       C  0.52350644  0.12457667  0.75627906    -0.18000
C2034       C  0.52454997  0.09249299  0.75689009     0.10400
S2035       S  0.93727298  0.15604377  0.72743108    -0.33000
S2036       S  0.55813076  0.06974501  0.76901171    -0.33000
H2037       H  0.54254883  0.05073046  0.78610015     0.28400
H2038       H  0.94022390  0.18273699  0.74398564     0.28400
H2039       H  0.95290529  0.09125976  0.73134014     0.19000
H2040       H  0.54286309  0.13397195  0.76248590     0.19000
C2041       C  0.49101515  0.34633336  0.98258238    -0.06900
C2042       C  0.01794156  0.34813774  0.95576875    -0.18000
C2043       C  0.02363168  0.37794664  0.95218630     0.10300
C2044       C  0.50082320  0.40657320  0.97322916    -0.06800
C2045       C  0.48189694  0.40104965  0.99772048    -0.18000
C2046       C  0.46984830  0.37067269  0.49570446     0.10400
S2047       S  0.05351064  0.38236917  0.92460352    -0.33000
S2048       S  0.43828306  0.36530874  0.52079569    -0.33000
H2049       H  0.43290348  0.33885715  0.50521377     0.28400
H2050       H  0.03926102  0.41145523  0.91661649     0.28400
H2051       H  0.03252701  0.32894801  0.94311552     0.19000
H2052       H  0.45992662  0.41973740  0.50537342     0.19000
C2053       C  0.00272947  0.16621634  0.51901422    -0.06900
C2054       C  0.47725326  0.16357861  0.54510743    -0.18000
C2055       C  0.47351222  0.13354262  0.55102258     0.10300
C2056       C  0.99482353  0.10526910  0.52892526    -0.06800
C2057       C  0.02256539  0.10912753  0.00447349    -0.18000
C2058       C  0.02649780  0.13947367  0.99981758     0.10400
S2059       S  0.44470921  0.12936712  0.57985042    -0.33000
S2060       S  0.05824089  0.14469138  0.97490942    -0.33000
H2061       H  0.06303185  0.17163140  0.99006543     0.28400
H2062       H  0.46050838  0.10164346  0.58940320     0.28400
H2063       H  0.46212450  0.18285884  0.55707999     0.19000
H2064       H  0.03715096  0.09025099  0.99141452     0.19000
C2065       C  0.84256334  0.01299889  0.97363357    -0.06900
C2066       C  0.84926458  0.04211999  0.98086477    -0.18000
C2067       C  0.87841058  0.04818652  0.97536988     0.10300
C2068       C  0.90198522  0.02422962  0.96332387    -0.06800
C2069       C  0.89157789  0.99224404  0.46527518    -0.18000
C2070       C  0.86214041  0.98661528  0.47043244     0.10400
S2071       S  0.88386280  0.08675506  0.98497016    -0.33000
S2072       S  0.85685746  0.94691841  0.46798411    -0.33000
H2073       H  0.88745419  0.93280537  0.46764503     0.28400
H2074       H  0.90626830  0.08699182  0.96147048     0.28400
H2075       H  0.83181811  0.06027833  0.99158003     0.19000
H2076       H  0.91015608  0.97286858  0.46124997     0.19000
C2077       C  0.60021288  0.48639679  0.53342207    -0.06900
C2078       C  0.62050642  0.46097955  0.51914665    -0.18000
C2079       C  0.65125957  0.46165785  0.51264402     0.10300
C2080       C  0.66234207  0.48843849  0.52089456    -0.06800
C2081       C  0.65123326  0.01795376  0.02375316    -0.18000
C2082       C  0.62066877  0.01824226  0.03189531     0.10400
S2083       S  0.67514717  0.42895590  0.49200856    -0.33000
S2084       S  0.59493947  0.05501818  0.03666874    -0.33000
H2085       H  0.61671225  0.07411483  0.03375354     0.28400
H2086       H  0.65285754  0.41079799  0.48880411     0.28400
H2087       H  0.61196740  0.44085977  0.51170681     0.19000
H2088       H  0.65849422  0.03979850  0.02118210     0.19000
C2089       C  0.03707466  0.49144675  0.88608084    -0.06900
C2090       C  0.55394860  0.45926250  0.86990973    -0.18000
C2091       C  0.54975029  0.45796636  0.83975992     0.10300
C2092       C  0.02940627  0.48865152  0.82616479    -0.06800
C2093       C  0.02349258  0.01692923  0.84125086    -0.18000
C2094       C  0.02834329  0.01781932  0.87106972     0.10400
S2095       S  0.55902264  0.42090724  0.81957978    -0.33000
S2096       S  0.01633744  0.05408451  0.89236638    -0.33000
H2097       H  0.03701295  0.04760409  0.91386095     0.28400
H2098       H  0.53364808  0.42518009  0.80321114     0.28400
H2099       H  0.56189030  0.43813970  0.88042749     0.19000
H2100       H  0.01170835  0.03740506  0.83195680     0.19000
C2101       C  0.46331888  0.00598270  0.61585948    -0.06900
C2102       C  0.47652780  0.47767528  0.61869158    -0.18000
C2103       C  0.48050737  0.46873820  0.64726797     0.10300
C2104       C  0.46679159  0.98818865  0.67390655    -0.06800
C2105       C  0.94596654  0.01661073  0.66268156    -0.18000
C2106       C  0.94410971  0.02569830  0.63374826     0.10400
S2107       S  0.50288125  0.43117725  0.65138796    -0.33000
S2108       S  0.92408247  0.06380809  0.62839394    -0.33000
H2109       H  0.90612710  0.05349882  0.60756979     0.28400
H2110       H  0.49274284  0.42865661  0.68112040     0.28400
H2111       H  0.48725409  0.46218409  0.60008478     0.19000
H2112       H  0.93577040  0.03280392  0.68094775     0.19000
O2113       O  0.56515292  0.96675517  0.52081207    -0.81600
O2114       O  0.95055322  0.00350551  0.46017448    -0.66300
O2115       O  0.52119027  0.50641819  0.48969347    -1.12900
C2116       C  0.47108612  0.51993060  0.07784913     1.05300
O2117       O  0.93787323  0.54485420  0.99013928    -0.79500
O2118       O  0.96452839  0.56870473  0.03373611    -0.67100
Ni2119     Ni  0.56053697  0.97427186  0.48041342     1.34900
C2120       C  0.99158228  0.57280153  0.02884592     0.84000
O2121       O  0.00643158  0.99826399  0.43409269    -0.80100
O2122       O  0.55604491  0.98155415  0.43936288    -0.90300
C2123       C  0.92435478  0.52794520  0.47206981     0.83600
O2124       O  0.54030603  0.94019427  0.47842689    -0.68500
O2125       O  0.95352924  0.52134377  0.06811088    -0.87800
C2126       C  0.51300398  0.93774164  0.47660867     0.84400
C2127       C  0.03293083  0.98786814  0.42183969     1.06000
H2128       H  0.97529331  0.98283471  0.01455791     0.37800
O2129       O  0.98036344  0.00243735  0.00954813    -1.10500
O2130       O  0.51453836  0.55211721  0.02301373    -0.67100
Ni2131     Ni  0.51559576  0.50876583  0.02615856     1.26300
O2132       O  0.99110256  0.95819852  0.47410427    -0.67400
O2133       O  0.49831610  0.51485204  0.06601291    -0.79700
C2134       C  0.57841515  0.98783022  0.03289788     0.83800
O2135       O  0.55481320  0.50716275  0.03954246    -0.66800
Ni2136     Ni  0.94590887  0.53335574  0.02901335     1.27400
Ni2137     Ni  0.98949186  0.00210508  0.47367889     1.26100
H2138       H  0.52744509  0.52535994  0.48417171     0.38300
O2139       O  0.53910923  0.98661933  0.28202290    -0.75200
O2140       O  0.51093812  0.48814708  0.20095162    -0.75200
O2141       O  0.52443033  0.53043988  0.24057913    -0.75300
O2142       O  0.52634679  0.94259091  0.24387814    -0.75300
O2143       O  0.97665065  0.94049149  0.25678864    -0.75200
O2144       O  0.97731803  0.52748713  0.25728748    -0.75200
O2145       O  0.96694746  0.48332436  0.21802081    -0.75200
O2146       O  0.98819402  0.98365924  0.29658685    -0.75300
Ni2147     Ni  0.52557504  0.48631360  0.23915750     1.25400
Ni2148     Ni  0.97518744  0.98464788  0.25779066     1.25400
C2149       C  0.01626869  0.97863773  0.30092466     0.87000
C2150       C  0.98842733  0.47859774  0.19721166     0.86900
C2151       C  0.00210080  0.53709786  0.25032906     0.87000
C2152       C  0.00097231  0.92094246  0.24854016     0.87100
O2153       O  0.75599299  0.97689484  0.44961549    -0.75200
O2154       O  0.76927090  0.97598314  0.03591702    -0.75200
O2155       O  0.72459237  0.96891104  0.00136023    -0.75300
O2156       O  0.80639598  0.98039025  0.98481538    -0.75300
O2157       O  0.78148608  0.53113717  0.50044587    -0.75200
O2158       O  0.69976089  0.51940150  0.51189693    -0.75200
O2159       O  0.74916285  0.52744651  0.04805161    -0.75200
O2160       O  0.73899837  0.52477099  0.46265553    -0.75300
Ni2161     Ni  0.76612319  0.97272767  0.99285666     1.25400
Ni2162     Ni  0.74011421  0.52686191  0.50633473     1.25400
C2163       C  0.74807896  0.00240577  0.43693414     0.87000
C2164       C  0.76076910  0.00152966  0.05178967     0.86900
C2165       C  0.70359353  0.99270042  0.00646574     0.87000
C2166       C  0.80618027  0.00807538  0.48499546     0.87100
O2167       O  0.49510693  0.79341322  0.46756714    -0.75200
O2168       O  0.50003923  0.70904658  0.48648156    -0.75200
O2169       O  0.95500829  0.75050023  0.47261085    -0.75300
O2170       O  0.54121522  0.74801370  0.47935008    -0.75300
O2171       O  0.54099803  0.76257071  0.02336509    -0.75200
O2172       O  0.95239760  0.76369297  0.02157686    -0.75200
O2173       O  0.00025673  0.72000613  0.03372845    -0.75200
O2174       O  0.99159474  0.80434411  0.01301909    -0.75300
Ni2175     Ni  0.49777873  0.75077571  0.47541706     1.25400
Ni2176     Ni  0.99573548  0.76278729  0.02508118     1.25400
C2177       C  0.99109090  0.81108435  0.48763576     0.87000
C2178       C  0.99894879  0.69807045  0.51033130     0.86900
C2179       C  0.93638759  0.75753849  0.49608243     0.87000
C2180       C  0.55216615  0.75469489  0.50369823     0.87100
O2181       O  0.95298254  0.73795641  0.24892158    -0.75200
O2182       O  0.53356330  0.73460583  0.21188268    -0.75200
O2183       O  0.49258942  0.69838305  0.22824369    -0.75300
O2184       O  0.49273801  0.78607036  0.23053252    -0.75300
O2185       O  0.00989428  0.77279165  0.27695609    -0.75200
O2186       O  0.00924839  0.68471412  0.27650375    -0.75200
O2187       O  0.54936538  0.73120897  0.25723183    -0.75200
O2188       O  0.96867034  0.73726812  0.29435348    -0.75300
Ni2189     Ni  0.49212748  0.74232137  0.22780272     1.25400
Ni2190     Ni  0.01008974  0.72869245  0.27854240     1.25400
C2191       C  0.94743142  0.74039257  0.27716426     0.87000
C2192       C  0.55482746  0.73072489  0.22907899     0.86900
C2193       C  0.00133498  0.67088985  0.25365152     0.84600
C2194       C  0.00180450  0.78793169  0.25440952     0.87100
O2195       O  0.82281409  0.72579013  0.26305221    -0.81600
O2196       O  0.69743520  0.72847291  0.22576602    -0.66300
O2197       O  0.77134718  0.75384626  0.23815823    -1.12900
C2198       C  0.72509670  0.78885900  0.33110358     1.05300
O2199       O  0.67031616  0.77322272  0.24446042    -0.79500
O2200       O  0.70561792  0.81423448  0.25820931    -0.67100
Ni2201     Ni  0.80887878  0.72839161  0.22417860     1.34900
C2202       C  0.73090874  0.82189429  0.26170205     0.84000
O2203       O  0.74702314  0.72913451  0.19019726    -0.80100
O2204       O  0.79694764  0.73020845  0.18461801    -0.90300
C2205       C  0.67268517  0.74740825  0.22994448     0.83600
O2206       O  0.79784430  0.68907888  0.22834340    -0.68500
O2207       O  0.70230843  0.79772022  0.31655720    -0.87800
C2208       C  0.77350662  0.68134083  0.23870385     0.84400
C2209       C  0.77156118  0.72955075  0.17432132     1.06000
H2210       H  0.71965549  0.73500992  0.28258923     0.37800
O2211       O  0.72325827  0.75246495  0.27166644    -1.10500
O2212       O  0.75189511  0.80481078  0.27330551    -0.67100
Ni2213     Ni  0.76133711  0.76195607  0.27962283     1.26300
O2214       O  0.74831930  0.69971354  0.24229562    -0.67400
O2215       O  0.74908360  0.77082643  0.32023700    -0.79700
C2216       C  0.82381701  0.74925237  0.27985226     0.83800
O2217       O  0.80045699  0.76966043  0.28650568    -0.66800
Ni2218     Ni  0.68857249  0.78429913  0.27956830     1.27400
Ni2219     Ni  0.73486400  0.74054009  0.23104657     1.26100
H2220       H  0.77114988  0.77306104  0.22873801     0.38300
O2221       O  0.74357491  0.75447831  0.45039390    -0.75200
O2222       O  0.75675875  0.72368771  0.03303939    -0.75200
O2223       O  0.71133129  0.73164879  0.99574349    -0.75300
O2224       O  0.79862835  0.73265928  0.98926003    -0.75300
O2225       O  0.78223664  0.78283997  0.50663224    -0.75200
O2226       O  0.69603834  0.77735137  0.51631737    -0.75200
O2227       O  0.74717938  0.77423498  0.04481504    -0.75200
O2228       O  0.73253740  0.80040795  0.47529922    -0.75300
Ni2229     Ni  0.75527918  0.73031991  0.99191629     1.25400
Ni2230     Ni  0.73886000  0.78163821  0.51217937     1.25400
C2231       C  0.73516391  0.78370453  0.45113593     0.87000
C2232       C  0.75314642  0.74634218  0.05228656     0.86900
C2233       C  0.69184316  0.75667732  0.00263515     0.87000
C2234       C  0.80223322  0.76038273  0.49418330     0.87100
O2235       O  0.72309198  0.96601946  0.24448423    -0.75200
O2236       O  0.73714477  0.55123781  0.25634728    -0.75200
O2237       O  0.73101617  0.50976939  0.21183513    -0.75300
O2238       O  0.72512668  0.00972350  0.28903063    -0.75300
O2239       O  0.77511226  0.99660119  0.28660668    -0.75200
O2240       O  0.78047357  0.49156510  0.20803263    -0.75200
O2241       O  0.78694229  0.53345241  0.25233697    -0.75200
O2242       O  0.77332611  0.95229927  0.24311491    -0.75300
Ni2243     Ni  0.72531307  0.00871547  0.24518905     1.25400
Ni2244     Ni  0.78127117  0.49177928  0.25162773     1.25400
C2245       C  0.74693130  0.94541939  0.24438355     0.87000
C2246       C  0.76442799  0.55578291  0.25388787     0.86900
C2247       C  0.75605042  0.50052613  0.19527323     0.87000
C2248       C  0.74946978  0.00382122  0.30264139     0.87100
C2249       C  0.77417748  0.64918625  0.24582734    -0.06900
C2250       C  0.79246309  0.62599359  0.22695579    -0.18000
C2251       C  0.79022602  0.59517355  0.22952510     0.10300
C2252       C  0.76973354  0.58728412  0.25186282    -0.06800
C2253       C  0.75266634  0.61024059  0.27174569    -0.18000
C2254       C  0.75508557  0.64103670  0.26934236     0.10400
S2255       S  0.81193124  0.56750767  0.20193546    -0.33000
S2256       S  0.73384455  0.66854932  0.29734959    -0.33000
H2257       H  0.75586859  0.68742804  0.29780597     0.28400
H2258       H  0.78760855  0.55269055  0.19666266     0.28400
H2259       H  0.80718232  0.63203660  0.20888730     0.19000
H2260       H  0.73739881  0.60410804  0.28930077     0.19000
C2261       C  0.73605041  0.85265984  0.25459612    -0.06900
C2262       C  0.75281902  0.86694897  0.27387455    -0.18000
C2263       C  0.75662487  0.89708235  0.27077178     0.10300
C2264       C  0.74389181  0.91343676  0.24755208    -0.06800
C2265       C  0.72767786  0.89917947  0.22769653    -0.18000
C2266       C  0.72402617  0.86864465  0.23069123     0.10400
S2267       S  0.77588624  0.91416099  0.29857171    -0.33000
S2268       S  0.70510435  0.85112328  0.20285299    -0.33000
H2269       H  0.72303928  0.82159134  0.20311521     0.28400
H2270       H  0.75332983  0.94073683  0.30328528     0.28400
H2271       H  0.76195325  0.85503612  0.29245616     0.19000
H2272       H  0.71831193  0.91171014  0.20955996     0.19000
C2273       C  0.76950394  0.73186778  0.14249658    -0.06900
C2274       C  0.75460538  0.71157776  0.12730950    -0.18000
C2275       C  0.74839809  0.71581348  0.09791412     0.10300
C2276       C  0.75770972  0.74063747  0.08335358    -0.06800
C2277       C  0.77287855  0.76059021  0.09858223    -0.18000
C2278       C  0.77851657  0.75675238  0.12797575     0.10400
S2279       S  0.72691076  0.69013367  0.08106491    -0.33000
S2280       S  0.79530226  0.78572240  0.14624542    -0.33000
H2281       H  0.77560815  0.78864609  0.17237975     0.28400
H2282       H  0.70968388  0.71295297  0.06563726     0.28400
H2283       H  0.74689171  0.69297473  0.13874531     0.19000
H2284       H  0.77994542  0.77977997  0.08767388     0.19000
C2285       C  0.72326993  0.79862939  0.36247754    -0.06900
C2286       C  0.69896159  0.79248869  0.38093984    -0.18000
C2287       C  0.70063497  0.79197085  0.41140809     0.10300
C2288       C  0.72722888  0.79724628  0.42344886    -0.06800
C2289       C  0.74979089  0.80739534  0.40547133    -0.18000
C2290       C  0.74775484  0.80863813  0.37488551     0.10400
S2291       S  0.66957940  0.78119704  0.43344395    -0.33000
S2292       S  0.77700070  0.82145238  0.35164781    -0.33000
H2293       H  0.79052956  0.83419157  0.37491156     0.28400
H2294       H  0.67406942  0.79778633  0.45936306     0.28400
H2295       H  0.67976586  0.78551053  0.37144316     0.19000
H2296       H  0.77004348  0.81172577  0.41489155     0.19000
C2297       C  0.58618895  0.72877434  0.21721684    -0.06900
C2298       C  0.59394782  0.75585995  0.20664404    -0.18000
C2299       C  0.62334278  0.76140884  0.20751600     0.10300
C2300       C  0.64536606  0.73916358  0.21881619    -0.06800
C2301       C  0.63855122  0.71020425  0.22512039    -0.18000
C2302       C  0.60898526  0.70486370  0.22459180     0.10400
S2303       S  0.63066451  0.79826399  0.19637106    -0.33000
S2304       S  0.60091909  0.66845233  0.23634636    -0.33000
H2305       H  0.57344285  0.67039552  0.22330052     0.28400
H2306       H  0.66180011  0.78806685  0.18833371     0.28400
H2307       H  0.57639496  0.77418312  0.20078595     0.19000
H2308       H  0.65550600  0.69278035  0.23328913     0.19000
C2309       C  0.91580421  0.74679796  0.28940439    -0.06900
C2310       C  0.89800786  0.77465014  0.28290260    -0.18000
C2311       C  0.86654711  0.77795637  0.28409754     0.10300
C2312       C  0.85295621  0.75233263  0.29066467    -0.06800
C2313       C  0.87050789  0.72587203  0.30057692    -0.18000
C2314       C  0.90181628  0.72309303  0.30056499     0.10400
S2315       S  0.84574446  0.81337998  0.27229539    -0.33000
S2316       S  0.92303466  0.68716406  0.31082790    -0.33000
H2317       H  0.94451864  0.70071792  0.32477483     0.28400
H2318       H  0.82284852  0.81638723  0.29580689     0.28400
H2319       H  0.90882860  0.79301655  0.27461404     0.19000
H2320       H  0.86008866  0.70630650  0.30607753     0.19000
C2321       C  0.90215878  0.75817081  0.49480245    -0.06900
C2322       C  0.88644328  0.77944775  0.01149451    -0.18000
C2323       C  0.85464767  0.78072664  0.01166270     0.10300
C2324       C  0.83653701  0.76090085  0.49431580    -0.06800
C2325       C  0.85799676  0.74025961  0.47501720    -0.18000
C2326       C  0.88989706  0.73864760  0.47504900     0.10400
S2327       S  0.83087079  0.81181091  0.03409815    -0.33000
S2328       S  0.91377226  0.70991838  0.44995910    -0.33000
H2329       H  0.93419581  0.69993976  0.47090566     0.28400
H2330       H  0.81312179  0.79245737  0.04794722     0.28400
H2331       H  0.89449127  0.79763760  0.02351710     0.19000
H2332       H  0.84989955  0.72471732  0.45977260     0.19000
C2333       C  0.65767339  0.75638384  0.00334938    -0.06900
C2334       C  0.64057269  0.73659334  0.48396997    -0.18000
C2335       C  0.60904453  0.73647675  0.48262288     0.10300
C2336       C  0.59343257  0.75482163  0.00063405    -0.06800
C2337       C  0.60345673  0.77703141  0.01883544    -0.18000
C2338       C  0.63473520  0.77852967  0.01989242     0.10400
S2339       S  0.59800126  0.71384508  0.45266405    -0.33000
S2340       S  0.64476010  0.80883556  0.04294503    -0.33000
H2341       H  0.61543790  0.82099766  0.05610266     0.28400
H2342       H  0.62673361  0.70521082  0.43693411     0.28400
H2343       H  0.65665751  0.72375517  0.46685991     0.19000
H2344       H  0.58650061  0.79398800  0.03176767     0.19000
C2345       C  0.74836502  0.00448080  0.33724821    -0.06900
C2346       C  0.77258474  0.98752685  0.35114381    -0.18000
C2347       C  0.77300671  0.98664951  0.38263817     0.10300
C2348       C  0.74854504  0.00288086  0.40253546    -0.06800
C2349       C  0.73221438  0.52401596  0.39762916    -0.18000
C2350       C  0.73356237  0.52569806  0.36607822     0.10400
S2351       S  0.80650435  0.96514439  0.39606499    -0.33000
S2352       S  0.71225447  0.55969327  0.35219014    -0.33000
H2353       H  0.73429028  0.56216166  0.32899856     0.28400
H2354       H  0.80734940  0.98636163  0.41988524     0.28400
H2355       H  0.79179449  0.97462154  0.33724531     0.19000
H2356       H  0.71792499  0.54257663  0.41133470     0.19000
C2357       C  0.75603344  0.50262414  0.09597247    -0.06900
C2358       C  0.78100915  0.98163240  0.10023237    -0.18000
C2359       C  0.77993354  0.97993743  0.13170917     0.10300
C2360       C  0.75660315  0.50055314  0.16100065    -0.06800
C2361       C  0.74118809  0.52624297  0.14739319    -0.18000
C2362       C  0.74063734  0.52755299  0.11596747     0.10400
S2363       S  0.80815992  0.95130679  0.14554280    -0.33000
S2364       S  0.71866656  0.56171349  0.10309928    -0.33000
H2365       H  0.70279415  0.54521008  0.08460218     0.28400
H2366       H  0.78769238  0.94148787  0.16655822     0.28400
H2367       H  0.79905925  0.96661445  0.08655305     0.19000
H2368       H  0.72916267  0.54577236  0.16150124     0.19000
C2369       C  0.00096979  0.88689366  0.24943210    -0.06900
C2370       C  0.52557165  0.87856881  0.26402925    -0.18000
C2371       C  0.52611539  0.84651923  0.26461206     0.10300
C2372       C  0.00209759  0.82196503  0.25368772    -0.06800
C2373       C  0.97785227  0.84119627  0.24226063    -0.18000
C2374       C  0.97693462  0.87311453  0.24016762     0.10400
S2375       S  0.55810592  0.82361830  0.27935781    -0.33000
S2376       S  0.94471398  0.89471116  0.22461095    -0.33000
H2377       H  0.96101883  0.91438289  0.20929038     0.28400
H2378       H  0.56114363  0.79894277  0.25799346     0.28400
H2379       H  0.54370941  0.88801620  0.27301709     0.19000
H2380       H  0.95928179  0.83123327  0.23483165     0.19000
C2381       C  0.00219577  0.57125775  0.25178784    -0.06900
C2382       C  0.97954289  0.59119413  0.23893747    -0.18000
C2383       C  0.97837286  0.62338695  0.23967766     0.10300
C2384       C  0.00061173  0.63677184  0.25331825    -0.06800
C2385       C  0.52058163  0.62951224  0.26534578    -0.18000
C2386       C  0.52134446  0.59750985  0.26577142     0.10400
S2387       S  0.94700432  0.64609276  0.22379257    -0.33000
S2388       S  0.54881263  0.57581868  0.28720074    -0.33000
H2389       H  0.53141210  0.55365587  0.29524125     0.28400
H2390       H  0.94262229  0.67062032  0.24545770     0.28400
H2391       H  0.96241200  0.58159028  0.22822411     0.19000
H2392       H  0.53684559  0.63945780  0.27708507     0.19000
C2393       C  0.49294239  0.84630817  0.48152297    -0.06900
C2394       C  0.01498369  0.84902947  0.46047546    -0.18000
C2395       C  0.02080794  0.87873923  0.45687909     0.10300
C2396       C  0.50552939  0.90629385  0.47535618    -0.06800
C2397       C  0.47702749  0.90196259  0.48782903    -0.18000
C2398       C  0.47821573  0.87097514  0.99605437     0.10400
S2399       S  0.05041126  0.88310112  0.42897050    -0.33000
S2400       S  0.44582937  0.86726360  0.02084534    -0.33000
H2401       H  0.43925760  0.84133863  0.00533689     0.28400
H2402       H  0.03608335  0.91222083  0.42118030     0.28400
H2403       H  0.02905506  0.82987357  0.44731330     0.19000
H2404       H  0.47086965  0.91994287  0.00603225     0.19000
C2405       C  0.00593449  0.66607169  0.02034421    -0.06900
C2406       C  0.48970186  0.66099699  0.04054344    -0.18000
C2407       C  0.48566031  0.63090779  0.04520099     0.10300
C2408       C  0.99746223  0.60484718  0.02832375    -0.06800
C2409       C  0.01207621  0.61021433  0.50702310    -0.18000
C2410       C  0.01645996  0.64002002  0.50090736     0.10400
S2411       S  0.46018896  0.62529355  0.07646765    -0.33000
S2412       S  0.04504792  0.64358680  0.47167958    -0.33000
H2413       H  0.05419072  0.66904861  0.48558019     0.28400
H2414       H  0.47580017  0.59581627  0.08190480     0.28400
H2415       H  0.47648986  0.67970564  0.05492010     0.19000
H2416       H  0.02471892  0.59077827  0.49315482     0.19000
C2417       C  0.83401531  0.51245146  0.48660467    -0.06900
C2418       C  0.83946455  0.54288657  0.48685862    -0.18000
C2419       C  0.86824026  0.54914890  0.47900517     0.10300
C2420       C  0.89256864  0.52446815  0.47138917    -0.06800
C2421       C  0.89215609  0.49242198  0.96687147    -0.18000
C2422       C  0.86287796  0.48660133  0.97333347     0.10400
S2423       S  0.87237000  0.58902838  0.47909398    -0.33000
S2424       S  0.85648174  0.44768447  0.96651800    -0.33000
H2425       H  0.88513962  0.43515236  0.95201007     0.28400
H2426       H  0.89638453  0.58432119  0.45650062     0.28400
H2427       H  0.82122310  0.56214549  0.49334237     0.19000
H2428       H  0.91031275  0.47337796  0.95954667     0.19000
C2429       C  0.61056526  0.98990920  0.03396370    -0.06900
C2430       C  0.63186531  0.96228492  0.03082796    -0.18000
C2431       C  0.66261891  0.96199241  0.02287127     0.10300
C2432       C  0.67223682  0.99022602  0.01755083    -0.06800
C2433       C  0.64259694  0.51288420  0.53718891    -0.18000
C2434       C  0.61185180  0.51211458  0.54387502     0.10400
S2435       S  0.68842765  0.92532263  0.01892687    -0.33000
S2436       S  0.58821002  0.54462642  0.56492958    -0.33000
H2437       H  0.61179357  0.55832068  0.57472116     0.28400
H2438       H  0.66755044  0.90685862  0.02851111     0.28400
H2439       H  0.62400553  0.94066846  0.03310704     0.19000
H2440       H  0.65121377  0.53306862  0.54434822     0.19000
C2441       C  0.03635074  0.98843279  0.38975977    -0.06900
C2442       C  0.55209371  0.97085560  0.37567517    -0.18000
C2443       C  0.54778327  0.96918311  0.34554029     0.10300
C2444       C  0.02451446  0.98115627  0.33094083    -0.06800
C2445       C  0.00822813  0.51049616  0.34827634    -0.18000
C2446       C  0.01303850  0.51559835  0.37761502     0.10400
S2447       S  0.56505933  0.93432114  0.32391806    -0.33000
S2448       S  0.99371064  0.55150878  0.39642236    -0.33000
H2449       H  0.01485695  0.55230561  0.41746294     0.28400
H2450       H  0.54010389  0.93292857  0.30765131     0.28400
H2451       H  0.56459754  0.95100827  0.38531645     0.19000
H2452       H  0.99266592  0.52757059  0.33793302     0.19000
C2453       C  0.46725236  0.51104123  0.10849784    -0.06900
C2454       C  0.49308832  0.98115514  0.11920003    -0.18000
C2455       C  0.49524139  0.97280237  0.14806678     0.10300
C2456       C  0.47361504  0.49630963  0.16724175    -0.06800
C2457       C  0.95785384  0.50547526  0.16110855    -0.18000
C2458       C  0.95601250  0.51646851  0.13290959     0.10400
S2459       S  0.52403681  0.94015809  0.15417139    -0.33000
S2460       S  0.92808797  0.55027182  0.12885364    -0.33000
H2461       H  0.94825733  0.56457785  0.11168497     0.28400
H2462       H  0.50951293  0.93241932  0.18064436     0.28400
H2463       H  0.50908462  0.96835259  0.10188912     0.19000
H2464       H  0.94259870  0.51762298  0.17929344     0.19000
O2465       O  0.57183034  0.96571777  0.01763467    -0.81600
O2466       O  0.95464372  0.00311959  0.95587852    -0.66300
O2467       O  0.53148494  0.50224372  0.98538079    -1.12900
C2468       C  0.46429729  0.51711435  0.58366465     1.05300
O2469       O  0.93106026  0.54844307  0.48929257    -0.79500
O2470       O  0.95559641  0.57180193  0.53451552    -0.67100
Ni2471     Ni  0.56624202  0.97201417  0.97701875     1.34900
C2472       C  0.98327784  0.57414624  0.53183663     0.84000
O2473       O  0.01056281  0.99798754  0.92806119    -0.80100
O2474       O  0.56135290  0.97805823  0.93587772    -0.90300
C2475       C  0.93086507  0.52466837  0.97272133     0.83600
O2476       O  0.54541645  0.93811741  0.97637778    -0.68500
O2477       O  0.93923573  0.52659844  0.56887587    -0.87800
C2478       C  0.51791992  0.93634342  0.97443296     0.84400
C2479       C  0.03701922  0.98748525  0.91541997     1.06000
H2480       H  0.96842154  0.98648027  0.51976095     0.37800
O2481       O  0.97417987  0.00569786  0.51441449    -1.10500
O2482       O  0.50378786  0.55411030  0.52983516    -0.67100
Ni2483     Ni  0.50720457  0.50998257  0.53088344     1.26300
O2484       O  0.99560794  0.95644934  0.96711819    -0.67400
O2485       O  0.49134928  0.51282672  0.57130292    -0.79700
C2486       C  0.57221296  0.98839752  0.53624528     0.83800
O2487       O  0.54715579  0.50918228  0.54272635    -0.66800
Ni2488     Ni  0.93544993  0.53776321  0.52903841     1.27400
Ni2489     Ni  0.99432181  0.00037318  0.96821917     1.26100
H2490       H  0.53951893  0.52008144  0.97927010     0.38300
O2491       O  0.53801974  0.98222894  0.77946049    -0.75200
O2492       O  0.50928877  0.48151621  0.70069421    -0.75200
O2493       O  0.52646049  0.52442172  0.73755921    -0.75300
O2494       O  0.52127094  0.93782348  0.74483792    -0.75300
O2495       O  0.97507289  0.94857055  0.75926920    -0.75200
O2496       O  0.97425142  0.53606920  0.75812479    -0.75200
O2497       O  0.95734092  0.49295450  0.72202391    -0.75200
O2498       O  0.99166312  0.99330835  0.79430239    -0.75300
Ni2499     Ni  0.52771872  0.48012576  0.73692128     1.25400
Ni2500     Ni  0.97317528  0.99286630  0.75821894     1.25400
C2501       C  0.02040954  0.98831245  0.79500954     0.87000
C2502       C  0.97575986  0.48786650  0.69872097     0.86900
C2503       C  0.99828220  0.54523903  0.74758086     0.87000
C2504       C  0.99835377  0.92885731  0.74823475     0.87100
O2505       O  0.76192513  0.97281328  0.94990143    -0.75200
O2506       O  0.76141242  0.97606977  0.53631843    -0.75200
O2507       O  0.71736374  0.97187100  0.49977876    -0.75300
O2508       O  0.79969417  0.98118889  0.48660749    -0.75300
O2509       O  0.78720764  0.53109080  0.99766485    -0.75200
O2510       O  0.70492683  0.52233277  0.01175530    -0.75200
O2511       O  0.74246526  0.52506089  0.54969950    -0.75200
O2512       O  0.74288770  0.52570000  0.96162837    -0.75300
Ni2513     Ni  0.75908395  0.97474771  0.49286724     1.25400
Ni2514     Ni  0.74557945  0.52841234  0.00493127     1.25400
C2515       C  0.75372206  0.99761521  0.93632765     0.87000
C2516       C  0.75480217  0.00134621  0.55292726     0.86900
C2517       C  0.69682094  0.99576986  0.50610191     0.87000
C2518       C  0.81164115  0.00774049  0.98231627     0.87100
O2519       O  0.50023836  0.79223327  0.96528515    -0.75200
O2520       O  0.51012913  0.70712012  0.98286861    -0.75200
O2521       O  0.96076439  0.74733360  0.97407830    -0.75300
O2522       O  0.54851017  0.74827022  0.97536891    -0.75300
O2523       O  0.53341922  0.76305501  0.52704286    -0.75200
O2524       O  0.94704146  0.76399261  0.52073405    -0.75200
O2525       O  0.99441370  0.71901342  0.53145546    -0.75200
O2526       O  0.98745376  0.80375429  0.51447867    -0.75300
Ni2527     Ni  0.50517637  0.74914748  0.97245750     1.25400
Ni2528     Ni  0.99067315  0.76180731  0.52437053     1.25400
C2529       C  0.99487949  0.81027960  0.98565411     0.87000
C2530       C  0.00568910  0.69843064  0.01307045     0.86900
C2531       C  0.94203667  0.75537744  0.99740772     0.87000
C2532       C  0.55936194  0.75509189  0.99972769     0.87100
O2533       O  0.95327258  0.74529120  0.74348628    -0.75200
O2534       O  0.53421985  0.73171195  0.71589432    -0.75200
O2535       O  0.49439570  0.69368776  0.73074201    -0.75300
O2536       O  0.49191053  0.78192546  0.73520038    -0.75300
O2537       O  0.01057602  0.77941473  0.77188092    -0.75200
O2538       O  0.00891161  0.69166698  0.77055958    -0.75200
O2539       O  0.54975661  0.72801760  0.76133723    -0.75200
O2540       O  0.96907112  0.74429833  0.78891191    -0.75300
Ni2541     Ni  0.49277676  0.73792175  0.73140305     1.25400
Ni2542     Ni  0.01035027  0.73542359  0.77291616     1.25400
C2543       C  0.94786783  0.74743414  0.77170216     0.87000
C2544       C  0.55534073  0.72813262  0.73325523     0.86900
C2545       C  0.00073168  0.67813839  0.74769747     0.84600
C2546       C  0.00198748  0.79501854  0.74979601     0.87100
O2547       O  0.82966006  0.72496880  0.74743276    -0.81600
O2548       O  0.69924103  0.72197242  0.71715177    -0.66300
O2549       O  0.77521992  0.74547515  0.72295000    -1.12900
C2550       C  0.73117198  0.77672212  0.82073298     1.05300
O2551       O  0.67738082  0.76889160  0.73369280    -0.79500
O2552       O  0.70300641  0.81110337  0.76224100    -0.67100
Ni2553     Ni  0.81186032  0.71697645  0.71140252     1.34900
C2554       C  0.72835524  0.81845444  0.75496639     0.84000
O2555       O  0.74697006  0.71981082  0.67886455    -0.80100
O2556       O  0.79765950  0.70674776  0.67391540    -0.90300
C2557       C  0.67588446  0.74270918  0.72179833     0.83600
O2558       O  0.80073121  0.68154723  0.72822012    -0.68500
O2559       O  0.70532271  0.77721384  0.81087699    -0.87800
C2560       C  0.77523198  0.67395887  0.73418568     0.84400
C2561       C  0.77186211  0.70944236  0.66359278     1.06000
H2562       H  0.72934855  0.72801427  0.77155061     0.37800
O2563       O  0.72939234  0.74569188  0.75990183    -1.10500
O2564       O  0.75326737  0.79963124  0.75280321    -0.67100
Ni2565     Ni  0.76642047  0.75876145  0.76378907     1.26300
O2566       O  0.75030907  0.69128875  0.73060483    -0.67400
O2567       O  0.75633278  0.77157201  0.80466957    -0.79700
C2568       C  0.82830632  0.75006421  0.76279688     0.83800
O2569       O  0.80448637  0.77020001  0.76650940    -0.66800
Ni2570     Ni  0.69226213  0.77274877  0.77196401     1.27400
Ni2571     Ni  0.73772988  0.73258008  0.71930736     1.26100
H2572       H  0.77563357  0.76314111  0.71119305     0.38300
O2573       O  0.75285475  0.74022704  0.95160375    -0.75200
O2574       O  0.75538024  0.71382466  0.52169634    -0.75200
O2575       O  0.70593160  0.73232221  0.49046885    -0.75300
O2576       O  0.79290593  0.73701246  0.48234252    -0.75300
O2577       O  0.78871875  0.78297087  0.00080809    -0.75200
O2578       O  0.70164542  0.78190292  0.00775351    -0.75200
O2579       O  0.74612665  0.75955610  0.54698541    -0.75200
O2580       O  0.74295808  0.79082834  0.96317136    -0.75300
Ni2581     Ni  0.74980001  0.73286354  0.48528033     1.25400
Ni2582     Ni  0.74482675  0.78424826  0.00451202     1.25400
C2583       C  0.74585177  0.76800732  0.94413807     0.87000
C2584       C  0.75377575  0.73014527  0.54584773     0.86900
C2585       C  0.68633479  0.75423801  0.50465078     0.87000
C2586       C  0.80833042  0.75784900  0.99514118     0.87100
O2587       O  0.72046801  0.96639127  0.74661325    -0.75200
O2588       O  0.73442853  0.54586644  0.75572776    -0.75200
O2589       O  0.72633546  0.50419405  0.71231228    -0.75300
O2590       O  0.72821748  0.00796707  0.79058075    -0.75300
O2591       O  0.77766330  0.98980846  0.78640074    -0.75200
O2592       O  0.77558340  0.48525623  0.70816642    -0.75200
O2593       O  0.78390411  0.52692957  0.75158526    -0.75200
O2594       O  0.77012413  0.94805934  0.74298327    -0.75300
Ni2595     Ni  0.72699786  0.00797813  0.74716516     1.25400
Ni2596     Ni  0.77702586  0.48576406  0.75163940     1.25400
C2597       C  0.74273892  0.94384618  0.74586253     0.87000
C2598       C  0.76196432  0.54978690  0.75298109     0.86900
C2599       C  0.75115367  0.49461247  0.69555695     0.87000
C2600       C  0.75278199  0.99922504  0.80313717     0.87100
C2601       C  0.77451514  0.64269668  0.74385179    -0.06900
C2602       C  0.79673601  0.61839496  0.73078226    -0.18000
C2603       C  0.79363670  0.58778910  0.73368418     0.10300
C2604       C  0.76818316  0.58119458  0.75093531    -0.06800
C2605       C  0.74721696  0.60546933  0.76577439    -0.18000
C2606       C  0.75027521  0.63599987  0.76268833     0.10400
S2607       S  0.82123575  0.55878569  0.71225240    -0.33000
S2608       S  0.72299814  0.66525786  0.78394036    -0.33000
H2609       H  0.74525377  0.68166705  0.79239031     0.28400
H2610       H  0.79941615  0.54411473  0.70005998     0.28400
H2611       H  0.81546002  0.62324174  0.71629074     0.19000
H2612       H  0.72816393  0.60064820  0.77982068     0.19000
C2613       C  0.73014706  0.85087682  0.75178843    -0.06900
C2614       C  0.75225580  0.86177538  0.76700309    -0.18000
C2615       C  0.75533771  0.89236619  0.76678861     0.10300
C2616       C  0.73716285  0.91251112  0.74946843    -0.06800
C2617       C  0.71413322  0.90212388  0.73505498    -0.18000
C2618       C  0.71026049  0.87140690  0.73621400     0.10400
S2619       S  0.78121054  0.90470533  0.79098930    -0.33000
S2620       S  0.68038927  0.85980619  0.71686322    -0.33000
H2621       H  0.69567682  0.82955419  0.70893399     0.28400
H2622       H  0.76149835  0.93241241  0.80056171     0.28400
H2623       H  0.76654991  0.84651122  0.78027052     0.19000
H2624       H  0.69968801  0.91773270  0.72223921     0.19000
C2625       C  0.77062903  0.70335156  0.63160885    -0.06900
C2626       C  0.79457469  0.70937279  0.61237684    -0.18000
C2627       C  0.79053034  0.71474723  0.58286768     0.10300
C2628       C  0.76177982  0.71517168  0.57276923    -0.06800
C2629       C  0.73923445  0.70495370  0.59058170    -0.18000
C2630       C  0.74375045  0.69802658  0.61986941     0.10400
S2631       S  0.82227404  0.72267647  0.55970487    -0.33000
S2632       S  0.71495267  0.68324817  0.64208251    -0.33000
H2633       H  0.69586229  0.68065010  0.61944834     0.28400
H2634       H  0.81402809  0.70946306  0.53356397     0.28400
H2635       H  0.81579515  0.71221617  0.62074239     0.19000
H2636       H  0.71767239  0.70398591  0.58203702     0.19000
C2637       C  0.73223916  0.77896192  0.85288918    -0.06900
C2638       C  0.71742677  0.75904534  0.86912067    -0.18000
C2639       C  0.72082883  0.75605305  0.89901269     0.10300
C2640       C  0.73954534  0.77329908  0.91334186    -0.06800
C2641       C  0.75300439  0.79476479  0.89759823    -0.18000
C2642       C  0.74977186  0.79754693  0.86720906     0.10400
S2643       S  0.70021467  0.73012738  0.91773824    -0.33000
S2644       S  0.76784540  0.82463720  0.84693447    -0.33000
H2645       H  0.77896113  0.83804282  0.87145094     0.28400
H2646       H  0.69013474  0.75150688  0.94185698     0.28400
H2647       H  0.70384320  0.74484412  0.85816906     0.19000
H2648       H  0.76692847  0.80832289  0.90880108     0.19000
C2649       C  0.58665047  0.72637716  0.72149271    -0.06900
C2650       C  0.59397195  0.75217149  0.70769644    -0.18000
C2651       C  0.62372865  0.75714559  0.70515384     0.10300
C2652       C  0.64647334  0.73548962  0.71610741    -0.06800
C2653       C  0.63956038  0.70801912  0.72676439    -0.18000
C2654       C  0.60976094  0.70340922  0.72992638     0.10400
S2655       S  0.63088172  0.79233845  0.68964247    -0.33000
S2656       S  0.60228085  0.66919319  0.74723630    -0.33000
H2657       H  0.57490975  0.66836783  0.73470086     0.28400
H2658       H  0.66122209  0.78072052  0.67915889     0.28400
H2659       H  0.57611657  0.76986965  0.70132069     0.19000
H2660       H  0.65703121  0.69125254  0.73508339     0.19000
C2661       C  0.91638620  0.75267176  0.78364913    -0.06900
C2662       C  0.89812673  0.78035393  0.77737967    -0.18000
C2663       C  0.86732881  0.78178921  0.77464782     0.10300
C2664       C  0.85528639  0.75453455  0.77702694    -0.06800
C2665       C  0.87269237  0.72834099  0.78752434    -0.18000
C2666       C  0.90310591  0.72731520  0.79134323     0.10400
S2667       S  0.84601119  0.81734610  0.76372089    -0.33000
S2668       S  0.92476026  0.69142625  0.80126102    -0.33000
H2669       H  0.94555775  0.70502851  0.81621281     0.28400
H2670       H  0.82180936  0.81757242  0.78546862     0.28400
H2671       H  0.90844742  0.79995101  0.77172309     0.19000
H2672       H  0.86322504  0.70764453  0.79032875     0.19000
C2673       C  0.90796226  0.75527308  0.99663300    -0.06900
C2674       C  0.88082342  0.77886333  0.51398355    -0.18000
C2675       C  0.84895403  0.78052712  0.51401341     0.10300
C2676       C  0.84258772  0.75767376  0.99590802    -0.06800
C2677       C  0.86421953  0.73315611  0.98145895    -0.18000
C2678       C  0.89606618  0.73147432  0.98203404     0.10400
S2679       S  0.82573999  0.80840936  0.54041441    -0.33000
S2680       S  0.92029814  0.69707049  0.96530286    -0.33000
H2681       H  0.94122708  0.69523278  0.98680361     0.28400
H2682       H  0.80820653  0.78773026  0.55208059     0.28400
H2683       H  0.88906758  0.79418966  0.52934366     0.19000
H2684       H  0.85629348  0.71459920  0.96990227     0.19000
C2685       C  0.65197780  0.75337901  0.50628068    -0.06900
C2686       C  0.64756651  0.73357468  0.98601733    -0.18000
C2687       C  0.61635333  0.73308135  0.98375385     0.10300
C2688       C  0.58683266  0.75314903  0.50459853    -0.06800
C2689       C  0.59834717  0.76900806  0.52768650    -0.18000
C2690       C  0.63000684  0.76934857  0.52878185     0.10400
S2691       S  0.60644699  0.70433686  0.95882221    -0.33000
S2692       S  0.64202830  0.78933497  0.55997332    -0.33000
H2693       H  0.61352765  0.79709895  0.57629895     0.28400
H2694       H  0.63550975  0.68607655  0.95335740     0.28400
H2695       H  0.66437243  0.71637957  0.97324090     0.19000
H2696       H  0.58231447  0.78165876  0.54495408     0.19000
C2697       C  0.75255639  0.99939454  0.83734902    -0.06900
C2698       C  0.77329619  0.97735290  0.85060403    -0.18000
C2699       C  0.77350368  0.97552755  0.88193894     0.10300
C2700       C  0.75314456  0.99683236  0.90212747    -0.06800
C2701       C  0.72630249  0.51592327  0.89784933    -0.18000
C2702       C  0.72556332  0.51637576  0.86640330     0.10400
S2703       S  0.80159664  0.94604870  0.89460723    -0.33000
S2704       S  0.69342114  0.54059177  0.85336617    -0.33000
H2705       H  0.71120147  0.55498117  0.83335031     0.28400
H2706       H  0.77990415  0.93118781  0.90905597     0.28400
H2707       H  0.78949471  0.96083408  0.83634674     0.19000
H2708       H  0.70721437  0.52873292  0.91198728     0.19000
C2709       C  0.75043560  0.49885470  0.59661814    -0.06900
C2710       C  0.76939279  0.97435816  0.60076418    -0.18000
C2711       C  0.76950479  0.97233580  0.63223340     0.10300
C2712       C  0.75138293  0.49505634  0.66129194    -0.06800
C2713       C  0.72870259  0.51534608  0.64835097    -0.18000
C2714       C  0.72780072  0.51717847  0.61703650     0.10400
S2715       S  0.78801638  0.93646257  0.64526817    -0.33000
S2716       S  0.69585977  0.54228903  0.60457244    -0.33000
H2717       H  0.69170910  0.52155937  0.58149981     0.28400
H2718       H  0.76778800  0.93711275  0.67073746     0.28400
H2719       H  0.78088157  0.95469690  0.58653689     0.19000
H2720       H  0.71106345  0.52997699  0.66283643     0.19000
C2721       C  0.99853483  0.89470308  0.74894760    -0.06900
C2722       C  0.52237642  0.87520989  0.76653015    -0.18000
C2723       C  0.52364018  0.84311424  0.76779456     0.10300
C2724       C  0.00159134  0.82918495  0.75015932    -0.06800
C2725       C  0.97511022  0.84890872  0.74360661    -0.18000
C2726       C  0.97319725  0.88112892  0.74311167     0.10400
S2727       S  0.55748618  0.82076654  0.77984331    -0.33000
S2728       S  0.93782933  0.90326045  0.73407355    -0.33000
H2729       H  0.95064151  0.92460675  0.71757047     0.28400
H2730       H  0.55897816  0.79574326  0.75919028     0.28400
H2731       H  0.54161287  0.88486111  0.77259379     0.19000
H2732       H  0.95553851  0.83908228  0.73884353     0.19000
C2733       C  0.99916847  0.57915427  0.74820701    -0.06900
C2734       C  0.97642175  0.59921465  0.73564262    -0.18000
C2735       C  0.97624104  0.63118988  0.73509660     0.10300
C2736       C  0.99934797  0.64421357  0.74761124    -0.06800
C2737       C  0.52622612  0.62324338  0.76141023    -0.18000
C2738       C  0.52746883  0.59104240  0.76056344     0.10400
S2739       S  0.94530344  0.65387454  0.71854572    -0.33000
S2740       S  0.55984710  0.56797555  0.77456437    -0.33000
H2741       H  0.54419471  0.54598048  0.78659028     0.28400
H2742       H  0.94249354  0.68010166  0.73790222     0.28400
H2743       H  0.95859693  0.58982689  0.72592031     0.19000
H2744       H  0.54469648  0.63257186  0.76989554     0.19000
C2745       C  0.49697028  0.84541315  0.98005117    -0.06900
C2746       C  0.01805324  0.84683803  0.95572434    -0.18000
C2747       C  0.02394446  0.87630086  0.95069950     0.10300
C2748       C  0.50952037  0.90544220  0.97397367    -0.06800
C2749       C  0.48470580  0.90062792  0.99289090    -0.18000
C2750       C  0.47050370  0.87229914  0.49097091     0.10400
S2751       S  0.05317778  0.87945623  0.92192703    -0.33000
S2752       S  0.43335355  0.86919662  0.50726037    -0.33000
H2753       H  0.43306118  0.83958678  0.49472507     0.28400
H2754       H  0.03977961  0.90892522  0.91412557     0.28400
H2755       H  0.03206596  0.82715684  0.94325978     0.19000
H2756       H  0.46005167  0.92173703  0.49614724     0.19000
C2757       C  0.99878773  0.66571121  0.51769041    -0.06900
C2758       C  0.47738528  0.66366581  0.54499793    -0.18000
C2759       C  0.47338014  0.63357934  0.55061052     0.10300
C2760       C  0.99076109  0.60528198  0.52989310    -0.06800
C2761       C  0.02109590  0.61088493  0.00853133    -0.18000
C2762       C  0.02563832  0.64102444  0.00454183     0.10400
S2763       S  0.44889795  0.62865459  0.58287372    -0.33000
S2764       S  0.05703149  0.64594920  0.97904397    -0.33000
H2765       H  0.06308414  0.67193399  0.99485282     0.28400
H2766       H  0.46486763  0.59942379  0.58856405     0.28400
H2767       H  0.46478502  0.68268423  0.55940545     0.19000
H2768       H  0.03572916  0.59205394  0.99543144     0.19000
C2769       C  0.83958071  0.51110396  0.98527192    -0.06900
C2770       C  0.84603527  0.54099783  0.98814535    -0.18000
C2771       C  0.87505705  0.54676134  0.98109324     0.10300
C2772       C  0.89883849  0.52196755  0.97179699    -0.06800
C2773       C  0.88682946  0.49435182  0.46892992    -0.18000
C2774       C  0.85808003  0.48788172  0.47651501     0.10400
S2775       S  0.88007321  0.58631486  0.98459767    -0.33000
S2776       S  0.85351236  0.44796471  0.47346743    -0.33000
H2777       H  0.88389282  0.43454112  0.46491259     0.28400
H2778       H  0.90288425  0.58320619  0.96093310     0.28400
H2779       H  0.82836676  0.56027208  0.99619242     0.19000
H2780       H  0.90543031  0.47541682  0.46273034     0.19000
C2781       C  0.60432825  0.99125536  0.53501372    -0.06900
C2782       C  0.62592267  0.96395446  0.53051679    -0.18000
C2783       C  0.65623197  0.96423896  0.52118093     0.10300
C2784       C  0.66537847  0.99287695  0.51648441    -0.06800
C2785       C  0.64990540  0.50600916  0.04234481    -0.18000
C2786       C  0.61965585  0.50287590  0.04822338     0.10400
S2787       S  0.68209948  0.92764819  0.51522914    -0.33000
S2788       S  0.59817691  0.52097372  0.08180612    -0.33000
H2789       H  0.62268818  0.52961699  0.09520960     0.28400
H2790       H  0.66028214  0.90851597  0.51661158     0.28400
H2791       H  0.61860626  0.94211073  0.53319853     0.19000
H2792       H  0.66018674  0.51952459  0.05770416     0.19000
C2793       C  0.04124850  0.99042076  0.88357225    -0.06900
C2794       C  0.55361827  0.96542024  0.87273683    -0.18000
C2795       C  0.54735039  0.96380262  0.84320514     0.10300
C2796       C  0.03223609  0.98949016  0.82367404    -0.06800
C2797       C  0.01955031  0.51637680  0.84310214    -0.18000
C2798       C  0.02368691  0.51822755  0.87297624     0.10400
S2799       S  0.55736200  0.92693282  0.82285897    -0.33000
S2800       S  0.01033270  0.55484888  0.89334732    -0.33000
H2801       H  0.03038544  0.54959700  0.91553134     0.28400
H2802       H  0.52965401  0.92919535  0.81029270     0.28400
H2803       H  0.56349844  0.94457949  0.88271405     0.19000
H2804       H  0.00732904  0.53628494  0.83329720     0.19000
C2805       C  0.46083378  0.50713433  0.61374752    -0.06900
C2806       C  0.48048202  0.97746222  0.62155167    -0.18000
C2807       C  0.48203824  0.96813770  0.65027337     0.10300
C2808       C  0.46849972  0.48984217  0.67129263    -0.06800
C2809       C  0.94534443  0.51787492  0.66463291    -0.18000
C2810       C  0.94194601  0.52627237  0.63570331     0.10400
S2811       S  0.50549987  0.93145680  0.65548806    -0.33000
S2812       S  0.92153135  0.56421067  0.63028722    -0.33000
H2813       H  0.90305658  0.55357255  0.61017187     0.28400
H2814       H  0.49114694  0.92721870  0.68331194     0.28400
H2815       H  0.49374025  0.96282861  0.60353329     0.19000
H2816       H  0.93580092  0.53434909  0.68289309     0.19000
loop_ 
_geom_bond_atom_site_label_1 
_geom_bond_atom_site_label_2 
_geom_bond_distance 
_geom_bond_site_symmetry_2 
_ccdc_geom_bond_type 
O1           Ni7   1.894       .  S
O1          C374   1.262       .  A
O2          Ni25   1.899       .  S
O2          C715   1.267       .  A
O3           H26   0.966       .  S
O3         Ni711   1.906   1_545  S
O3        Ni2137   1.888   1_455  S
O3         Ni371   1.919       .  S
C4           O21   1.276   1_655  A
C4         O1421   1.278       .  A
C4          C341   1.467       .  S
O5          Ni24   1.899   1_556  S
O5          C363   1.264       .  A
O6          Ni24   1.908       .  S
O6            C8   1.267       .  A
Ni7          O10   1.914       .  S
Ni7          O12   1.902       .  S
Ni7         O707   1.899       .  S
C8         O1426   1.270       .  A
C8          C296   1.482       .  S
O9          Ni25   1.899       .  S
O9           C15   1.278       .  A
O10        C1423   1.278       .  A
C11         O706   1.266       .  A
C11         O357   1.265       .  A
C11         C308   1.473       .  S
O12          C14   1.266       .  A
O13         Ni24   1.913       .  S
O13        C1412   1.276       .  A
C14        O1428   1.269   1_455  A
C14         C284   1.479   1_455  S
C15        O1418   1.278       .  A
C15         C329   1.454       .  S
H16          O17   0.966       .  S
O17        Ni377   1.921   1_554  S
O17       Ni2131   1.889       .  S
O17        Ni728   1.901       .  S
O18         Ni19   1.932       .  S
O18        C1416   1.270   1_455  A
Ni19         O23   1.891       .  S
Ni19         O21   1.901       .  S
Ni19        O355   1.918   1_554  S
Ni19       O2129   1.881   1_455  S
O20         Ni25   1.936       .  S
O20        C1422   1.271       .  A
C22         O353   1.266       .  A
C22         O727   1.263       .  A
C22         C317   1.479       .  S
O23         C726   1.261   1_545  A
Ni24        O721   1.899       .  S
Ni25       O2115   1.882       .  S
Ni25        O369   1.916       .  S
O27        Ni739   1.882       .  S
O27        C1445   1.272       .  A
O28         Ni35   1.904       .  S
O28        C1446   1.280   1_455  A
O29         Ni35   1.950   1_545  S
O29        C1447   1.288       .  A
O30        Ni739   1.943       .  S
O30        C1448   1.286       .  A
O31         Ni36   1.941       .  S
O31          C40   1.286       .  A
O32        Ni740   1.940   1_545  S
O32          C39   1.285       .  A
O33        Ni740   1.905       .  S
O33          C38   1.278       .  A
O34         Ni36   1.897       .  S
O34          C37   1.278       .  A
Ni35        O731   1.894       .  S
Ni35        O734   1.943       .  S
Ni35      Ni2148   2.389   1_455  S
Ni36        O736   1.935       .  S
Ni36        O737   1.900       .  S
Ni36      Ni2147   2.390       .  S
C37        O1435   1.276       .  A
C37         C332   1.450       .  S
C38        O1436   1.278       .  A
C38        C1752   1.458       .  S
C39        O1437   1.288       .  A
C39         C269   1.509       .  S
C40        O1438   1.285       .  A
C40         C257   1.506       .  S
O41        Ni401   1.971       .  S
O41          C51   1.291       .  A
O42         Ni49   1.977   1_554  S
O42          C52   1.293       .  A
O43         Ni49   1.908       .  S
O43          C53   1.278   1_556  A
O44         Ni49   1.904       .  S
O44         C406   1.277       .  A
O45         Ni50   1.908       .  S
O45         C758   1.280       .  A
O46         Ni50   1.904       .  S
O46        C1109   1.280   1_545  A
O47        Ni402   1.973       .  S
O47         C756   1.292       .  A
O48         Ni50   1.982       .  S
O48         C755   1.294       .  A
Ni49        O393   1.979       .  S
Ni49      Ni1106   2.372       .  S
Ni50        O399   1.981       .  S
Ni50      Ni1105   2.370   1_545  S
C51         O752   1.295       .  A
C51         C236   1.560       .  S
C52         O751   1.294       .  A
C52         C949   1.561       .  S
C53        O1102   1.279   1_554  A
C53         C320   1.481       .  S
C54         O396   1.279       .  A
C54         O749   1.278       .  A
C54        C1009   1.478       .  S
O55         Ni63   1.917       .  S
O55        C1473   1.281       .  A
O56         Ni63   1.919   1_455  S
O56        C1474   1.281       .  A
O57       Ni1471   1.968       .  S
O57          C67   1.291       .  A
O58         Ni63   1.964   1_455  S
O58          C68   1.290       .  A
O59       Ni1472   1.971   1_455  S
O59         C420   1.292   1_554  A
O60         Ni64   1.971       .  S
O60         C419   1.292   1_554  A
O61         Ni64   1.914       .  S
O61         C418   1.280       .  A
O62         Ni64   1.913       .  S
O62         C417   1.280   1_554  A
Ni63       O1465   1.967       .  S
Ni63      Ni1824   2.376       .  S
Ni64       O1467   1.974       .  S
Ni64      Ni1823   2.374   1_554  S
C65        O1463   1.282       .  A
C65         O414   1.281       .  A
C65        C1689   1.485       .  S
C66        O1464   1.281       .  A
C66         O413   1.282       .  A
C66         C645   1.485       .  S
C67         O412   1.291       .  A
C67         C209   1.545       .  S
C68         O411   1.293       .  A
C68         C576   1.552       .  S
O69       Ni1485   1.896       .  S
O69          C79   1.278       .  A
O70         Ni77   1.908   1_455  S
O70          C80   1.278       .  A
O71         Ni77   1.938       .  S
O71        C1489   1.285       .  A
O72         Ni77   1.933       .  S
O72        C1490   1.284       .  A
O73         Ni78   1.946       .  S
O73          C82   1.287       .  A
O74         Ni78   1.941       .  S
O74          C81   1.286       .  A
O75       Ni1486   1.889       .  S
O75          C80   1.276       .  A
O76         Ni78   1.907       .  S
O76          C79   1.277       .  A
Ni77       O1477   1.906       .  S
Ni77      Ni1486   2.389   1_655  S
Ni78       O1483   1.893       .  S
Ni78      Ni1485   2.389       .  S
C79         C197   1.456       .  S
C80         C185   1.449       .  S
C81        O1479   1.287       .  A
C81         C272   1.509       .  S
C82        O1480   1.285       .  A
C82         C260   1.505       .  S
O83         Ni89   1.924       .  S
O83         C104   1.271       .  A
O84        Ni107   1.871       .  S
O84          C93   1.259       .  A
O85         H108   0.966       .  S
O85         Ni89   1.899       .  S
O85        Ni107   1.877       .  S
O85        Ni101   1.891       .  S
C86         O103   1.266       .  A
C86          O95   1.277       .  A
C86         C173   1.465       .  S
O87        Ni106   1.933       .  S
O87          C93   1.274       .  A
O88        Ni106   1.898       .  S
O88          C90   1.265       .  A
Ni89         O92   1.917       .  S
Ni89         O94   1.912       .  S
C90         O100   1.272       .  A
C90         C149   1.467       .  S
O91        Ni107   1.904       .  S
O91          C97   1.273       .  A
O92          C97   1.277       .  A
C93         C188   1.452       .  S
O94          C96   1.267       .  A
O95        Ni106   1.944       .  S
C96         O102   1.268       .  A
C96         C137   1.477       .  S
C97         C161   1.460       .  S
H98          O99   0.966       .  S
O99        Ni107   1.905       .  S
O99        Ni101   1.895       .  S
O99        Ni106   1.911       .  S
O100       Ni101   1.928       .  S
Ni101       O105   1.887       .  S
Ni101       O103   1.874       .  S
O102       Ni107   1.914       .  S
C104        O105   1.261       .  A
C104        C200   1.455       .  S
O109       Ni469   1.900       .  S
O109        C119   1.278       .  A
O110       Ni117   1.916   1_554  S
O110        C120   1.280       .  A
O111       Ni117   1.965       .  S
O111        C121   1.290   1_556  A
O112       Ni117   1.968       .  S
O112        C474   1.291       .  A
O113       Ni118   1.964       .  S
O113        C122   1.290       .  A
O114       Ni118   1.967       .  S
O114        C473   1.291       .  A
O115       Ni470   1.891       .  S
O115        C120   1.277       .  A
O116       Ni118   1.905       .  S
O116        C119   1.275       .  A
Ni117       O461   1.905       .  S
Ni117      Ni470   2.382   1_556  S
Ni118       O467   1.899       .  S
Ni118      Ni469   2.382       .  S
C119        C176   1.451       .  S
C120        C164   1.465       .  S
C121        O466   1.293       .  A
C121        C221   1.543       .  S
C122        O464   1.292       .  A
C122        C212   1.545       .  S
O123       Ni131   1.909       .  S
O123        C133   1.280       .  A
O124       Ni835   1.912       .  S
O124        C134   1.279       .  A
O125       Ni835   1.978       .  S
O125        C135   1.294       .  A
O126       Ni131   1.980       .  S
O126        C136   1.294       .  A
O127       Ni836   1.979       .  S
O127        C136   1.294       .  A
O128       Ni132   1.972       .  S
O128        C135   1.292   1_565  A
O129       Ni132   1.921   1_545  S
O129        C134   1.280       .  A
O130       Ni836   1.905       .  S
O130        C133   1.278       .  A
Ni131       O828   1.896       .  S
Ni131       O829   1.979       .  S
Ni131      Ni836   2.377       .  S
Ni132       O831   1.980       .  S
Ni132       O834   1.916       .  S
Ni132      Ni835   2.374   1_565  S
C133        C152   1.475       .  S
C134        C140   1.471       .  S
C135        C248   1.558   1_545  S
C136        C233   1.558       .  S
C137        C138   1.405       .  A
C137        C142   1.414       .  A
C138        C139   1.400       .  A
C138        H147   1.084       .  S
C139        C140   1.413       .  A
C139        S143   1.803       .  S
C140        C141   1.401       .  A
C141        C142   1.397       .  A
C141        H148   1.084       .  S
C142        S144   1.803       .  S
S143        H146   1.405       .  S
S144        H145   1.407       .  S
C149        C150   1.401       .  A
C149        C154   1.410       .  A
C150        C151   1.397       .  A
C150        H159   1.083       .  S
C151        C152   1.414       .  A
C151        S155   1.808       .  S
C152        C153   1.405       .  A
C153        C154   1.395       .  A
C153        H160   1.084       .  S
C154        S156   1.801       .  S
S155        H158   1.407       .  S
S156        H157   1.407       .  S
C161        C162   1.401       .  A
C161        C166   1.412       .  A
C162        C163   1.397       .  A
C162        H171   1.084       .  S
C163        C164   1.413       .  A
C163        S167   1.801       .  S
C164        C165   1.402       .  A
C165        C166   1.389       .  A
C165        H172   1.085       .  S
C166        S168   1.805       .  S
S167        H170   1.406       .  S
S168        H169   1.407       .  S
C173        C174   1.399       .  A
C173        C178   1.414       .  A
C174        C175   1.390       .  A
C174        H183   1.084       .  S
C175        C176   1.408       .  A
C175        S179   1.802       .  S
C176        C177   1.398       .  A
C177        C178   1.398       .  A
C177        H184   1.083       .  S
C178        S180   1.809       .  S
S179        H182   1.405       .  S
S180        H181   1.407       .  S
C185        C186   1.400       .  A
C185        C190   1.407       .  A
C186        C187   1.392       .  A
C186        H195   1.085       .  S
C187        C188   1.409       .  A
C187        S191   1.805       .  S
C188        C189   1.400       .  A
C189        C190   1.391       .  A
C189        H196   1.084       .  S
C190        S192   1.804       .  S
S191        H194   1.403       .  S
S192        H193   1.407       .  S
C197        C198   1.401       .  A
C197        C202   1.408       .  A
C198        C199   1.391       .  A
C198        H207   1.085       .  S
C199        C200   1.409       .  A
C199        S203   1.803       .  S
C200        C201   1.401       .  A
C201        C202   1.394       .  A
C201        H208   1.084       .  S
C202        S204   1.801       .  S
S203        H206   1.406       .  S
S204        H205   1.406       .  S
C209        C214   1.428       .  A
C209        C562   1.414       .  A
C210        C211   1.426       .  A
C210        C561   1.417   1_554  A
C210        H219   1.083       .  S
C211        C564   1.424   1_554  A
C211        S215   1.801       .  S
C212        C213   1.415       .  A
C212        C563   1.428       .  A
C213        C214   1.426       .  A
C213        H220   1.083       .  S
C214        S216   1.800       .  S
S215        H218   1.406       .  S
S216        H217   1.408       .  S
C221        C226   1.424       .  A
C221        C574   1.414   1_554  A
C222        C223   1.429       .  A
C222        C573   1.414       .  A
C222        H231   1.082       .  S
C223        C576   1.429       .  A
C223        S227   1.807       .  S
C224        C420   1.548       .  S
C224        C225   1.417   1_556  A
C224        C575   1.428       .  A
C225        C226   1.426       .  A
C225        H232   1.083       .  S
C226        S228   1.801       .  S
S227        H230   1.406       .  S
S228        H229   1.407       .  S
C233        C234   1.415       .  A
C233        C942   1.431       .  A
C234        C235   1.429       .  A
C234        H243   1.083       .  S
C235        C236   1.430       .  A
C235        S239   1.797       .  S
C236        C941   1.418       .  A
C237        C238   1.433       .  A
C237        C940   1.418       .  A
C237        H244   1.083       .  S
C238        C937   1.430       .  A
C238        S240   1.800       .  S
S239        H242   1.407       .  S
S240        H241   1.407       .  S
C245        C756   1.546       .  S
C245        C250   1.426       .  A
C245        C950   1.412   1_545  A
C246        C247   1.432       .  A
C246        C949   1.419       .  A
C246        H255   1.083       .  S
C247        C952   1.427       .  A
C247        S251   1.799       .  S
C248        C249   1.418   1_565  A
C248        C951   1.433       .  A
C249        C250   1.429       .  A
C249        H256   1.083       .  S
C250        S252   1.801       .  S
S251        H254   1.406       .  S
S252        H253   1.406       .  S
C257        C262   1.419       .  A
C257       C1666   1.409       .  A
C258        C259   1.411       .  A
C258       C1665   1.406       .  A
C258        H267   1.083       .  S
C259       C1668   1.420   1_455  A
C259        S263   1.802       .  S
C260        C261   1.407       .  A
C260       C1667   1.420       .  A
C261        C262   1.410       .  A
C261        H268   1.084       .  S
C262        S264   1.803       .  S
S263        H266   1.406       .  S
S264        H265   1.404       .  S
C269        C270   1.409       .  A
C269       C1682   1.418       .  A
C270        C271   1.414       .  A
C270        H279   1.084       .  S
C271        C272   1.419       .  A
C271        S275   1.803       .  S
C272       C1681   1.409       .  A
C273        C274   1.413       .  A
C273       C1680   1.409   1_455  A
C273        H280   1.084       .  S
C274       C1677   1.420       .  A
C274        S276   1.802       .  S
S275        H278   1.407       .  S
S276        H277   1.407       .  S
C281       C1473   1.478       .  S
C281       C1690   1.402   1_655  A
C281        C638   1.415       .  A
C282        C283   1.402       .  A
C282       C1689   1.404       .  A
C282        H291   1.084       .  S
C283       C1692   1.416       .  A
C283        S287   1.804       .  S
C284        C285   1.406       .  A
C284       C1691   1.413   1_655  A
C285        C638   1.404       .  A
C285        H644   1.084       .  S
C286        C633   1.415       .  A
C286        C637   1.405       .  A
C286        S288   1.803   1_556  S
S287        H290   1.407       .  S
S288        H289   1.407       .  S
H292        C637   1.084   1_554  S
C293        C418   1.477       .  S
C293       C1702   1.403       .  A
C293        C650   1.413       .  A
C294        C295   1.399       .  A
C294       C1701   1.403   1_655  A
C294        H303   1.084       .  S
C295       C1704   1.415       .  A
C295        S299   1.798       .  S
C296       C1703   1.415       .  A
C296        C649   1.407       .  A
C297        C298   1.402       .  A
C297        C648   1.406       .  A
C297        H304   1.084       .  S
C298        C645   1.414       .  A
C298        S300   1.802       .  S
S299        H302   1.407       .  S
S300        H301   1.407       .  S
C305        C758   1.483       .  S
C305        C306   1.408       .  A
C305        C662   1.419   1_545  A
C306        C307   1.395       .  A
C306        H315   1.083       .  S
C307        C308   1.410       .  A
C307        S311   1.804       .  S
C308        C661   1.403   1_545  A
C309        C310   1.398       .  A
C309        C660   1.403   1_565  A
C309        H316   1.083       .  S
C310        C657   1.420   1_565  A
C310        S312   1.811       .  S
S311        H314   1.408       .  S
S312        H313   1.407       .  S
C317        C318   1.405       .  A
C317       C1378   1.415       .  A
C318        C319   1.397       .  A
C318        H327   1.082       .  S
C319        C320   1.415       .  A
C319        S323   1.810   1_554  S
C320       C1377   1.407       .  A
C321        C322   1.399       .  A
C321       C1376   1.409   1_545  A
C321        H328   1.082       .  S
C322       C1373   1.413   1_545  A
C322        S324   1.811       .  S
S323        H326   1.407       .  S
S324        H325   1.406       .  S
C329       C1738   1.402       .  A
C329       C1038   1.409       .  A
C330        C331   1.390       .  A
C330       C1737   1.401       .  A
C330        H339   1.084       .  S
C331       C1740   1.409       .  A
C331        S335   1.803       .  S
C332       C1739   1.409       .  A
C332       C1037   1.399       .  A
C333        C334   1.387       .  A
C333       C1036   1.397   1_545  A
C333        H340   1.085       .  S
C334       C1033   1.411   1_545  A
C334        S336   1.806       .  S
S335        H338   1.405       .  S
S336        H337   1.408       .  S
C341       C1046   1.405   1_545  A
C341       C1754   1.412       .  A
C342        C343   1.384   1_655  A
C342       C1045   1.404       .  A
C342        H351   1.085   1_655  S
C343       C1048   1.408   1_455  A
C343        S347   1.807       .  S
C344       C1446   1.462       .  S
C344       C1047   1.406       .  A
C344       C1753   1.404   1_565  A
C345        C346   1.402       .  A
C345       C1752   1.405   1_545  A
C345        H352   1.083       .  S
C346       C1749   1.411       .  A
C346        S348   1.807       .  S
S347        H350   1.406       .  S
S348        H349   1.407       .  S
O353       Ni359   1.902   1_554  S
O354       Ni377   1.894       .  S
O354       C1067   1.265       .  A
O355        H378   0.966       .  S
O355      Ni1063   1.903   1_545  S
O355      Ni2489   1.883   1_455  S
C356        O373   1.279       .  A
C356       O1773   1.275       .  A
C356        C693   1.453       .  S
O357       Ni376   1.905       .  S
O358       Ni376   1.910       .  S
O358        C360   1.267       .  A
Ni359       O362   1.909       .  S
Ni359       O364   1.907       .  S
Ni359      O1059   1.896       .  S
C360       O1778   1.271       .  A
C360        C648   1.486       .  S
O361       Ni377   1.896       .  S
O361        C367   1.278       .  A
O362       C1775   1.277       .  A
C363       O1058   1.265       .  A
C363        C660   1.471       .  S
O364        C366   1.267       .  A
O365       Ni376   1.914       .  S
O365       C1764   1.276       .  A
C366       O1780   1.270   1_455  A
C366        C636   1.484       .  S
C367       O1770   1.278       .  A
C367        C681   1.453       .  S
H368        O369   0.966       .  S
O369      Ni2483   1.891       .  S
O369      Ni1080   1.901       .  S
O370       Ni371   1.923       .  S
O370       C1768   1.268   1_455  A
Ni371       O375   1.913       .  S
Ni371       O373   1.901   1_455  S
Ni371      O2481   1.890   1_455  S
O372       Ni377   1.925       .  S
O372       C1774   1.266       .  A
C374       O1079   1.265       .  A
C374        C669   1.473       .  S
O375       C1078   1.265   1_545  A
Ni376      O1073   1.901       .  S
Ni377      O2467   1.879       .  S
O379      Ni1091   1.895       .  S
O379       C1797   1.275       .  A
O380       Ni387   1.895       .  S
O380       C1798   1.278   1_455  A
O381       Ni387   1.944   1_545  S
O381       C1799   1.287   1_455  A
O382      Ni1091   1.934       .  S
O382       C1800   1.284   1_455  A
O383       Ni388   1.937       .  S
O383        C392   1.285       .  A
O384      Ni1092   1.941   1_545  S
O384        C391   1.285       .  A
O385      Ni1092   1.906       .  S
O385        C390   1.278       .  A
O386       Ni388   1.897       .  S
O386        C389   1.278       .  A
Ni387      O1083   1.898       .  S
Ni387      O1086   1.939       .  S
Ni387     Ni2500   2.389   1_455  S
Ni388      O1088   1.938       .  S
Ni388      O1089   1.897       .  S
Ni388     Ni2499   2.390       .  S
C389       O1787   1.275       .  A
C389        C684   1.447       .  S
C390       O1788   1.278       .  A
C390       C2104   1.456       .  S
C391       O1789   1.288       .  A
C391        C621   1.510       .  S
C392       O1790   1.285       .  A
C392        C609   1.502       .  S
O393        C403   1.294       .  A
O394       Ni401   1.970       .  S
O394        C404   1.291       .  A
O395       Ni401   1.916       .  S
O395        C405   1.280       .  A
O396       Ni401   1.909       .  S
O397       Ni402   1.907   1_556  S
O397       C1110   1.280       .  A
O398       Ni402   1.896       .  S
O398        C757   1.279   1_545  A
O399       C1108   1.294       .  A
O400       Ni402   1.976   1_556  S
O400       C1107   1.292   1_545  A
Ni401      Ni754   2.371       .  S
Ni402      Ni753   2.373   1_544  S
C403       O1104   1.292       .  A
C403        C588   1.553       .  S
C404       O1103   1.295       .  A
C404       C1301   1.559       .  S
C405        O750   1.278       .  A
C405        C672   1.487       .  S
C406       O1101   1.279       .  A
C406       C1361   1.481       .  S
O407       Ni415   1.926   1_655  S
O407       C1825   1.283       .  A
O408       Ni415   1.924       .  S
O408       C1826   1.282   1_556  A
O409      Ni1823   1.967       .  S
O409        C419   1.291       .  A
O410       Ni415   1.967       .  S
O410        C420   1.291       .  A
O411      Ni1824   1.975   1_455  S
O412       Ni416   1.964       .  S
O413       Ni416   1.922       .  S
O414       Ni416   1.920       .  S
Ni415      O1817   1.974   1_455  S
Ni415     Ni1472   2.376   1_456  S
Ni416      O1819   1.970       .  S
Ni416     Ni1471   2.375       .  S
C417       O1815   1.281       .  A
C417       C2041   1.484       .  S
C418       O1816   1.280   1_554  A
C419        C561   1.551       .  S
O421      Ni1837   1.892       .  S
O421        C431   1.278       .  A
O422       Ni429   1.909   1_455  S
O422        C432   1.278       .  A
O423       Ni429   1.944       .  S
O423       C1841   1.286       .  A
O424       Ni429   1.935       .  S
O424       C1842   1.285   1_655  A
O425       Ni430   1.940       .  S
O425        C434   1.285       .  A
O426       Ni430   1.940       .  S
O426        C433   1.286       .  A
O427      Ni1838   1.897       .  S
O427        C432   1.278       .  A
O428       Ni430   1.910       .  S
O428        C431   1.277       .  A
Ni429      O1829   1.898       .  S
Ni429     Ni1838   2.390   1_655  S
Ni430      O1835   1.899       .  S
Ni430     Ni1837   2.390       .  S
C431        C549   1.454       .  S
C432        C537   1.453       .  S
C433       O1831   1.287       .  A
C433        C624   1.507       .  S
C434       O1832   1.284       .  A
C434        C612   1.498       .  S
O435       Ni441   1.921       .  S
O435        C456   1.270       .  A
O436       Ni459   1.874       .  S
O436        C445   1.259       .  A
O437        H460   0.966       .  S
O437       Ni441   1.925       .  S
O437       Ni459   1.898       .  S
O437       Ni453   1.917       .  S
C438        O455   1.262       .  A
C438        O447   1.276       .  A
C438        C525   1.462       .  S
O439       Ni458   1.934       .  S
O439        C445   1.273       .  A
O440       Ni458   1.895       .  S
O440        C442   1.265       .  A
Ni441       O444   1.939       .  S
Ni441       O446   1.899       .  S
C442        O452   1.273       .  A
C442        C501   1.479       .  S
O443       Ni459   1.878       .  S
O443        C449   1.259       .  A
O444        C449   1.271       .  A
C445        C540   1.455       .  S
O446        C448   1.270       .  A
O447       Ni458   1.941       .  S
C448        O454   1.277       .  A
C448        C489   1.471       .  S
C449        C513   1.472       .  S
H450        O451   0.951       .  S
O451       Ni459   1.884       .  S
O451       Ni453   1.881       .  S
O451       Ni458   1.913       .  S
O452       Ni453   1.925       .  S
Ni453       O457   1.875       .  S
Ni453       O455   1.873       .  S
O454       Ni459   1.942       .  S
C456        O457   1.256       .  A
C456        C552   1.451       .  S
O461        C471   1.279       .  A
O462       Ni469   1.908       .  S
O462        C472   1.276       .  A
O463       Ni469   1.972       .  S
O463        C473   1.293       .  A
O464       Ni469   1.970       .  S
O465       Ni470   1.973       .  S
O465        C474   1.293   1_554  A
O466       Ni470   1.972       .  S
O467        C472   1.278       .  A
O468       Ni470   1.898   1_556  S
O468        C471   1.275       .  A
C471        C528   1.449       .  S
C472        C516   1.453       .  S
C473        C573   1.549       .  S
C474        C564   1.542       .  S
O475       Ni483   1.913       .  S
O475        C485   1.280       .  A
O476      Ni1187   1.902       .  S
O476        C486   1.279       .  A
O477      Ni1187   1.976       .  S
O477        C487   1.293   1_545  A
O478       Ni483   1.973       .  S
O478        C488   1.292       .  A
O479      Ni1188   1.979       .  S
O479        C488   1.294       .  A
O480       Ni484   1.974       .  S
O480        C487   1.293       .  A
O481       Ni484   1.906   1_545  S
O481        C486   1.278       .  A
O482      Ni1188   1.900       .  S
O482        C485   1.277       .  A
Ni483      O1180   1.902       .  S
Ni483      O1181   1.975       .  S
Ni483     Ni1188   2.378       .  S
Ni484      O1183   1.975       .  S
Ni484      O1186   1.904       .  S
Ni484     Ni1187   2.378   1_565  S
C485        C504   1.470       .  S
C486        C492   1.471       .  S
C487        C600   1.551       .  S
C488        C585   1.554       .  S
C489        C490   1.403       .  A
C489        C494   1.411       .  A
C490        C491   1.397       .  A
C490        H499   1.084       .  S
C491        C492   1.415       .  A
C491        S495   1.803       .  S
C492        C493   1.401       .  A
C493        C494   1.391       .  A
C493        H500   1.084       .  S
C494        S496   1.793       .  S
S495        H498   1.408       .  S
S496        H497   1.408       .  S
C501        C502   1.405       .  A
C501        C506   1.418       .  A
C502        C503   1.390       .  A
C502        H511   1.083       .  S
C503        C504   1.412       .  A
C503        S507   1.804       .  S
C504        C505   1.402       .  A
C505        C506   1.398       .  A
C505        H512   1.084       .  S
C506        S508   1.803       .  S
S507        H510   1.406       .  S
S508        H509   1.408       .  S
C513        C514   1.403       .  A
C513        C518   1.416       .  A
C514        C515   1.394       .  A
C514        H523   1.084       .  S
C515        C516   1.408       .  A
C515        S519   1.803       .  S
C516        C517   1.396       .  A
C517        C518   1.396       .  A
C517        H524   1.083       .  S
C518        S520   1.809       .  S
S519        H522   1.405       .  S
S520        H521   1.407       .  S
C525        C526   1.399       .  A
C525        C530   1.416       .  A
C526        C527   1.389       .  A
C526        H535   1.084       .  S
C527        C528   1.408       .  A
C527        S531   1.800       .  S
C528        C529   1.395       .  A
C529        C530   1.396       .  A
C529        H536   1.083       .  S
C530        S532   1.808       .  S
S531        H534   1.404       .  S
S532        H533   1.407       .  S
C537        C538   1.402       .  A
C537        C542   1.407       .  A
C538        C539   1.394       .  A
C538        H547   1.084       .  S
C539        C540   1.408       .  A
C539        S543   1.804       .  S
C540        C541   1.401       .  A
C541        C542   1.392       .  A
C541        H548   1.085       .  S
C542        S544   1.804       .  S
S543        H546   1.406       .  S
S544        H545   1.407       .  S
C549        C550   1.402       .  A
C549        C554   1.406       .  A
C550        C551   1.392       .  A
C550        H559   1.085       .  S
C551        C552   1.408       .  A
C551        S555   1.806       .  S
C552        C553   1.400       .  A
C553        C554   1.393       .  A
C553        H560   1.084       .  S
C554        S556   1.800       .  S
S555        H558   1.400       .  S
S556        H557   1.406       .  S
C561        C566   1.431       .  A
C562        C563   1.424       .  A
C562        H571   1.083       .  S
C563        S567   1.801       .  S
C564        C565   1.414       .  A
C565        C566   1.428       .  A
C565        H572   1.083       .  S
C566        S568   1.800       .  S
S567        H570   1.406       .  S
S568        H569   1.408       .  S
C573        C578   1.427       .  A
C574        C575   1.429       .  A
C574        H583   1.082       .  S
C575        S579   1.807       .  S
C576        C577   1.417       .  A
C577        C578   1.431       .  A
C577        H584   1.082       .  S
C578        S580   1.805       .  S
S579        H582   1.406       .  S
S580        H581   1.407       .  S
C585        C586   1.416       .  A
C585       C1294   1.429       .  A
C586        C587   1.430       .  A
C586        H595   1.083       .  S
C587        C588   1.428       .  A
C587        S591   1.799       .  S
C588       C1293   1.416       .  A
C589       C1292   1.417   1_545  A
C589        C590   1.431       .  A
C589        H596   1.083       .  S
C590       C1289   1.429       .  A
C590        S592   1.800       .  S
S591        H594   1.407       .  S
S592        H593   1.408       .  S
C597       C1108   1.557       .  S
C597       C1302   1.418   1_545  A
C597        C602   1.430       .  A
C598       C1301   1.420       .  A
C598        C599   1.431       .  A
C598        H607   1.083       .  S
C599       C1304   1.426       .  A
C599        S603   1.801       .  S
C600       C1303   1.427       .  A
C600        C601   1.416   1_565  A
C601        C602   1.430       .  A
C601        H608   1.083       .  S
C602        S604   1.800       .  S
S603        H606   1.406       .  S
S604        H605   1.408       .  S
C609       C2018   1.409       .  A
C609        C614   1.419       .  A
C610       C2017   1.409   1_455  A
C610        C611   1.409       .  A
C610        H619   1.083       .  S
C611       C2020   1.417   1_455  A
C611        S615   1.803       .  S
C612       C2019   1.417       .  A
C612        C613   1.406       .  A
C613        C614   1.408       .  A
C613        H620   1.084       .  S
C614        S616   1.804       .  S
S615        H618   1.402       .  S
S616        H617   1.403       .  S
C621        C622   1.410       .  A
C621       C2034   1.419       .  A
C622        C623   1.414       .  A
C622        H631   1.084       .  S
C623        C624   1.419       .  A
C623        S627   1.804       .  S
C624       C2033   1.408       .  A
C625       C2032   1.406   1_455  A
C625        C626   1.411       .  A
C625        H632   1.084       .  S
C626       C2029   1.419   1_455  A
C626        S628   1.802       .  S
S627        H630   1.405       .  S
S628        H629   1.407       .  S
C633       C1825   1.484       .  S
C633       C2042   1.404   1_655  A
C634       C2041   1.406       .  A
C634        C635   1.397       .  A
C634        H643   1.084       .  S
C635       C2044   1.408       .  A
C635        S639   1.804       .  S
C636       C2043   1.414       .  A
C636        C637   1.405   1_455  A
C638        S640   1.804       .  S
S639        H642   1.407       .  S
S640        H641   1.407       .  S
C645       C2054   1.405       .  A
C646       C2053   1.404   1_655  A
C646        C647   1.398       .  A
C646        H655   1.084       .  S
C647       C2056   1.412       .  A
C647        S651   1.803       .  S
C648       C2055   1.416       .  A
C649        C650   1.401       .  A
C649        H656   1.084   1_554  S
C650        S652   1.803   1_554  S
S651        H654   1.407       .  S
S652        H653   1.407       .  S
C657       C1110   1.482       .  S
C657        C658   1.407       .  A
C658        C659   1.393       .  A
C658        H667   1.083       .  S
C659        C660   1.409       .  A
C659        S663   1.804       .  S
C661        C662   1.398       .  A
C661        H668   1.083       .  S
C662        S664   1.810       .  S
S663        H666   1.407       .  S
S664        H665   1.407       .  S
C669        C670   1.403       .  A
C669       C1026   1.412       .  A
C670        C671   1.402       .  A
C670        H679   1.083       .  S
C671        C672   1.419       .  A
C671        S675   1.810       .  S
C672       C1025   1.408       .  A
C673       C1024   1.405   1_545  A
C673        C674   1.392       .  A
C673        H680   1.082       .  S
C674       C1021   1.412   1_545  A
C674        S676   1.812       .  S
S675        H678   1.407       .  S
S676        H677   1.407       .  S
C681       C2090   1.402       .  A
C681       C1390   1.408       .  A
C682       C2089   1.401       .  A
C682        C683   1.390       .  A
C682        H691   1.084       .  S
C683       C2092   1.406       .  A
C683        S687   1.802       .  S
C684       C2091   1.409       .  A
C684       C1389   1.396       .  A
C685       C1388   1.397   1_545  A
C685        C686   1.389       .  A
C685        H692   1.084       .  S
C686       C1385   1.409   1_545  A
C686        S688   1.805       .  S
S687        H690   1.405       .  S
S688        H689   1.408       .  S
C693       C1398   1.401   1_545  A
C693       C2106   1.407       .  A
C694       C1397   1.401       .  A
C694        C695   1.384       .  A
C694        H703   1.085       .  S
C695       C1400   1.406       .  A
C695        S699   1.807       .  S
C696       C1798   1.448       .  S
C696       C1399   1.407       .  A
C696       C2105   1.402   1_565  A
C697       C2104   1.403   1_545  A
C697        C698   1.397       .  A
C697        H704   1.084       .  S
C698       C2101   1.410       .  A
C698        S700   1.799       .  S
S699        H702   1.402       .  S
S700        H701   1.406       .  S
O705       Ni711   1.900       .  S
O705       C1078   1.263       .  A
O706       Ni729   1.902       .  S
O707        H730   0.966       .  S
O707      Ni1433   1.884   1_455  S
O707      Ni1075   1.916       .  S
C708        O725   1.274   1_655  A
C708       O2125   1.277       .  A
C708       C1045   1.457       .  S
O709       Ni728   1.910   1_556  S
O709       C1067   1.268       .  A
O710       Ni728   1.910       .  S
O710        C712   1.269       .  A
Ni711       O714   1.921       .  S
Ni711       O716   1.901       .  S
C712       O2130   1.268       .  A
C712       C1000   1.474       .  S
O713       Ni729   1.892       .  S
O713        C719   1.276   1_545  A
O714       C2127   1.278       .  A
C715       O1061   1.266       .  A
C715       C1012   1.476       .  S
O716        C718   1.265       .  A
O717       Ni728   1.923       .  S
O717       C2116   1.277       .  A
C718       O2132   1.270   1_455  A
C718        C988   1.477       .  S
C719       O2122   1.279       .  A
C719       C1033   1.459       .  S
H720        O721   0.966   1_565  S
O721      Ni1081   1.917   1_554  S
O721      Ni1427   1.886       .  S
O722       Ni723   1.923       .  S
O722       C2120   1.269   1_455  A
Ni723       O727   1.901       .  S
Ni723       O725   1.890       .  S
Ni723      O1059   1.904   1_554  S
Ni723      O1425   1.888   1_455  S
O724       Ni729   1.931   1_565  S
O724       C2126   1.270       .  A
C726       O1057   1.265       .  A
C726       C1021   1.461       .  S
Ni729      O1411   1.885       .  S
Ni729      O1073   1.916       .  S
O731       C2149   1.274       .  A
O732       Ni739   1.889       .  S
O732       C2150   1.277   1_455  A
O733       Ni739   1.949       .  S
O733       C2151   1.288       .  A
O734       C2152   1.287       .  A
O735       Ni740   1.941       .  S
O735        C744   1.286       .  A
O736        C743   1.284       .  A
O737        C742   1.276       .  A
O738       Ni740   1.908       .  S
O738        C741   1.281       .  A
Ni739     Ni1444   2.390   1_455  S
Ni740     Ni1443   2.388       .  S
C741       O2139   1.274       .  A
C741       C1036   1.453       .  S
C742       O2140   1.281       .  A
C742       C2456   1.459       .  S
C743       O2141   1.285       .  A
C743        C973   1.497       .  S
C744       O2142   1.287       .  A
C744        C961   1.507       .  S
O745      Ni1105   1.976       .  S
O745        C755   1.293   1_565  A
O746       Ni753   1.976   1_554  S
O746        C756   1.292   1_565  A
O747       Ni753   1.904   1_554  S
O747        C757   1.277       .  A
O748       Ni753   1.900       .  S
O748       C1110   1.276   1_565  A
O749       Ni754   1.898       .  S
O750       Ni754   1.898       .  S
O751      Ni1106   1.979   1_554  S
O752       Ni754   1.986       .  S
Ni753      O1097   1.975       .  S
Ni754      O1103   1.985       .  S
C755        C940   1.560       .  S
C757       C1024   1.477       .  S
C758       O1100   1.278   1_545  A
O759       Ni767   1.925       .  S
O759       C2177   1.283       .  A
O760       Ni767   1.926   1_455  S
O760       C2178   1.283   1_455  A
O761      Ni2175   1.965       .  S
O761        C771   1.290       .  A
O762       Ni767   1.959   1_455  S
O762        C772   1.288       .  A
O763      Ni2176   1.975   1_455  S
O763       C1124   1.293       .  A
O764       Ni768   1.968       .  S
O764       C1123   1.291   1_554  A
O765       Ni768   1.918       .  S
O765       C1122   1.282       .  A
O766       Ni768   1.916       .  S
O766       C1121   1.280   1_554  A
Ni767      O2169   1.963       .  S
Ni767     Ni2528   2.376       .  S
Ni768      O2171   1.967       .  S
Ni768     Ni2527   2.378   1_554  S
C769       O2167   1.280       .  A
C769       O1118   1.280       .  A
C769       C2393   1.473       .  S
C770       O2168   1.281       .  A
C770       O1117   1.283       .  A
C770       C1349   1.491       .  S
C771       O1116   1.293       .  A
C771        C913   1.546       .  S
C772       O1115   1.293       .  A
C772       C1280   1.546       .  S
O773      Ni2189   1.904       .  S
O773        C783   1.280       .  A
O774       Ni781   1.916   1_455  S
O774        C784   1.279       .  A
O775       Ni781   1.941       .  S
O775       C2193   1.286   1_655  A
O776       Ni781   1.934       .  S
O776       C2194   1.284   1_655  A
O777       Ni782   1.946       .  S
O777        C786   1.287       .  A
O778       Ni782   1.937       .  S
O778        C785   1.285       .  A
O779      Ni2190   1.900       .  S
O779        C784   1.278       .  A
O780       Ni782   1.909       .  S
O780        C783   1.277       .  A
Ni781      O2181   1.907       .  S
Ni781     Ni2190   2.387   1_655  S
Ni782      O2187   1.900       .  S
Ni782     Ni2189   2.387       .  S
C783        C901   1.460       .  S
C784        C889   1.460       .  S
C785       O2183   1.285       .  A
C785        C976   1.506       .  S
C786       O2184   1.285       .  A
C786        C964   1.509       .  S
O787       Ni793   1.922       .  S
O787        C808   1.269       .  A
O788       Ni811   1.885       .  S
O788        C797   1.263       .  A
O789        H812   0.966       .  S
O789       Ni793   1.903       .  S
O789       Ni811   1.884       .  S
O789       Ni805   1.897       .  S
C790        O807   1.269       .  A
C790        O799   1.280       .  A
C790        C877   1.469       .  S
O791       Ni810   1.945       .  S
O791        C797   1.276       .  A
O792       Ni810   1.903       .  S
O792        C794   1.267       .  A
Ni793       O796   1.920       .  S
Ni793       O798   1.905       .  S
C794        O804   1.272       .  A
C794        C853   1.474       .  S
O795       Ni811   1.900       .  S
O795        C801   1.273       .  A
O796        C801   1.277       .  A
C797        C892   1.470       .  S
O798        C800   1.267       .  A
O799       Ni810   1.946       .  S
C800        O806   1.266       .  A
C800        C841   1.473       .  S
C801        C865   1.461       .  S
H802        O803   0.966       .  S
O803       Ni811   1.899       .  S
O803       Ni805   1.897       .  S
O803       Ni810   1.905       .  S
O804       Ni805   1.929       .  S
Ni805       O809   1.897       .  S
Ni805       O807   1.879       .  S
O806       Ni811   1.905       .  S
C808        O809   1.264       .  A
C808        C904   1.461       .  S
O813      Ni1173   1.899       .  S
O813        C823   1.278       .  A
O814       Ni821   1.914   1_554  S
O814        C824   1.279       .  A
O815       Ni821   1.975       .  S
O815        C825   1.293   1_556  A
O816       Ni821   1.974       .  S
O816       C1178   1.293       .  A
O817       Ni822   1.965       .  S
O817        C826   1.290       .  A
O818       Ni822   1.964       .  S
O818       C1177   1.290       .  A
O819      Ni1174   1.891       .  S
O819        C824   1.277       .  A
O820       Ni822   1.911       .  S
O820        C823   1.277       .  A
Ni821      O1165   1.910       .  S
Ni821     Ni1174   2.380   1_556  S
Ni822      O1171   1.903       .  S
Ni822     Ni1173   2.381       .  S
C823        C880   1.454       .  S
C824        C868   1.460       .  S
C825       O1170   1.292       .  A
C825        C925   1.552       .  S
C826       O1168   1.292       .  A
C826        C916   1.548       .  S
O827       Ni835   1.915   1_565  S
O827        C837   1.281       .  A
O828        C838   1.277       .  A
O829        C839   1.293       .  A
O830       Ni835   1.979       .  S
O830        C840   1.294       .  A
O831        C840   1.294   1_565  A
O832       Ni836   1.979       .  S
O832        C839   1.293       .  A
O833       Ni836   1.908       .  S
O833        C838   1.278       .  A
O834        C837   1.280       .  A
C837        C856   1.485       .  S
C838        C844   1.460       .  S
C839        C952   1.554       .  S
C840        C937   1.557       .  S
C841        C842   1.406       .  A
C841        C846   1.415       .  A
C842        C843   1.395       .  A
C842        H851   1.084       .  S
C843        C844   1.410       .  A
C843        S847   1.804       .  S
C844        C845   1.399       .  A
C845        C846   1.391       .  A
C845        H852   1.084       .  S
C846        S848   1.803       .  S
S847        H850   1.407       .  S
S848        H849   1.407       .  S
C853        C854   1.401       .  A
C853        C858   1.412       .  A
C854        C855   1.397       .  A
C854        H863   1.084       .  S
C855        C856   1.417       .  A
C855        S859   1.798       .  S
C856        C857   1.405       .  A
C857        C858   1.397       .  A
C857        H864   1.084       .  S
C858        S860   1.801       .  S
S859        H862   1.403       .  S
S860        H861   1.407       .  S
C865        C866   1.402       .  A
C865        C870   1.412       .  A
C866        C867   1.400       .  A
C866        H875   1.084       .  S
C867        C868   1.414       .  A
C867        S871   1.802       .  S
C868        C869   1.397       .  A
C869        C870   1.384       .  A
C869        H876   1.085       .  S
C870        S872   1.805       .  S
S871        H874   1.406       .  S
S872        H873   1.407       .  S
C877        C878   1.402       .  A
C877        C882   1.414       .  A
C878        C879   1.395       .  A
C878        H887   1.084       .  S
C879        C880   1.409       .  A
C879        S883   1.803       .  S
C880        C881   1.397       .  A
C881        C882   1.397       .  A
C881        H888   1.083       .  S
C882        S884   1.809       .  S
S883        H886   1.406       .  S
S884        H885   1.407       .  S
C889        C890   1.401       .  A
C889        C894   1.407       .  A
C890        C891   1.396       .  A
C890        H899   1.085       .  S
C891        C892   1.413       .  A
C891        S895   1.803       .  S
C892        C893   1.404       .  A
C893        C894   1.396       .  A
C893        H900   1.084       .  S
C894        S896   1.804       .  S
S895        H898   1.401       .  S
S896        H897   1.407       .  S
C901        C902   1.400       .  A
C901        C906   1.409       .  A
C902        C903   1.393       .  A
C902        H911   1.084       .  S
C903        C904   1.412       .  A
C903        S907   1.804       .  S
C904        C905   1.402       .  A
C905        C906   1.396       .  A
C905        H912   1.084       .  S
C906        S908   1.801       .  S
S907        H910   1.407       .  S
S908        H909   1.406       .  S
C913       C1266   1.414       .  A
C913        C918   1.428       .  A
C914       C1265   1.413   1_554  A
C914        C915   1.426       .  A
C914        H923   1.083       .  S
C915       C1268   1.429   1_554  A
C915        S919   1.799       .  S
C916       C1267   1.430       .  A
C916        C917   1.415       .  A
C917        C918   1.426       .  A
C917        H924   1.083       .  S
C918        S920   1.800       .  S
S919        H922   1.408       .  S
S920        H921   1.407       .  S
C925       C1278   1.415   1_554  A
C925        C930   1.427       .  A
C926       C1277   1.414       .  A
C926        C927   1.428       .  A
C926        H935   1.082       .  S
C927       C1280   1.428       .  A
C927        S931   1.807       .  S
C928       C1124   1.552       .  S
C928       C1279   1.426   1_554  A
C928        C929   1.418       .  A
C929        C930   1.435       .  A
C929        H936   1.082       .  S
C930        S932   1.806       .  S
S931        H934   1.406       .  S
S932        H933   1.407       .  S
C937        C938   1.416   1_545  A
C938        C939   1.430       .  A
C938        H947   1.083       .  S
C939        C940   1.430   1_565  A
C939        S943   1.797       .  S
C941        C942   1.434       .  A
C941        H948   1.083       .  S
C942        S944   1.800       .  S
S943        H946   1.407       .  S
S944        H945   1.407       .  S
C949        C954   1.432       .  A
C950        C951   1.428       .  A
C950        H959   1.083       .  S
C951        S955   1.797       .  S
C952        C953   1.415       .  A
C953        C954   1.431       .  A
C953        H960   1.083       .  S
C954        S956   1.799       .  S
S955        H958   1.400       .  S
S956        H957   1.408       .  S
C961       C2370   1.408       .  A
C961        C966   1.420       .  A
C962       C2369   1.409       .  A
C962        C963   1.413       .  A
C962        H971   1.083       .  S
C963       C2372   1.419       .  A
C963        S967   1.802       .  S
C964       C2371   1.420       .  A
C964        C965   1.408       .  A
C965        C966   1.412       .  A
C965        H972   1.084       .  S
C966        S968   1.804       .  S
S967        H970   1.404       .  S
S968        H969   1.402       .  S
C973        C974   1.405       .  A
C973       C2386   1.417       .  A
C974        C975   1.409       .  A
C974        H983   1.084       .  S
C975        C976   1.421       .  A
C975        S979   1.801       .  S
C976       C2385   1.409       .  A
C977       C2384   1.410       .  A
C977        C978   1.414       .  A
C977        H984   1.084       .  S
C978       C2381   1.419       .  A
C978        S980   1.802       .  S
S979        H982   1.407       .  S
S980        H981   1.405       .  S
C985       C2177   1.480       .  S
C985       C2394   1.403   1_655  A
C985       C1342   1.416       .  A
C986       C2393   1.399       .  A
C986        C987   1.396       .  A
C986        H995   1.085       .  S
C987       C2396   1.419       .  A
C987        S991   1.804       .  S
C988       C2395   1.413       .  A
C988        C989   1.403   1_455  A
C989       C1342   1.402       .  A
C989       H1348   1.084       .  S
C990       C1337   1.414       .  A
C990       C1341   1.403       .  A
C990        S992   1.803   1_556  S
S991        H994   1.408       .  S
S992        H993   1.407       .  S
H996       C1341   1.084   1_554  S
C997       C1122   1.481       .  S
C997       C2406   1.403       .  A
C997       C1354   1.416   1_554  A
C998       C2405   1.402   1_655  A
C998        C999   1.400       .  A
C998       H1007   1.084       .  S
C999       C2408   1.417       .  A
C999       S1003   1.799       .  S
C1000      C2407   1.412       .  A
C1000      C1353   1.403       .  A
C1001      C1352   1.404       .  A
C1001      C1002   1.402       .  A
C1001      H1008   1.084       .  S
C1002      C1349   1.417       .  A
C1002      S1004   1.803       .  S
S1003      H1006   1.405       .  S
S1004      H1005   1.408       .  S
C1009      C1010   1.406       .  A
C1009      C1366   1.415       .  A
C1010      C1011   1.393       .  A
C1010      H1019   1.084       .  S
C1011      C1012   1.412       .  A
C1011      S1015   1.804       .  S
C1012      C1365   1.405       .  A
C1013      C1364   1.404       .  A
C1013      C1014   1.395       .  A
C1013      H1020   1.083       .  S
C1014      C1361   1.418       .  A
C1014      S1016   1.811       .  S
S1015      H1018   1.408       .  S
S1016      H1017   1.407       .  S
C1021      C1022   1.399       .  A
C1022      C1023   1.393       .  A
C1022      H1031   1.084       .  S
C1023      C1024   1.418       .  A
C1023      S1027   1.802       .  S
C1025      C1026   1.396       .  A
C1025      H1032   1.082       .  S
C1026      S1028   1.811       .  S
S1027      H1030   1.408       .  S
S1028      H1029   1.406       .  S
C1033      C2442   1.402       .  A
C1034      C2441   1.401       .  A
C1034      C1035   1.394       .  A
C1034      H1043   1.084       .  S
C1035      C2444   1.409       .  A
C1035      S1039   1.803       .  S
C1036      C2443   1.412       .  A
C1037      C1038   1.386       .  A
C1037      H1044   1.084       .  S
C1038      S1040   1.806       .  S
S1039      H1042   1.406       .  S
S1040      H1041   1.407       .  S
C1045      C2458   1.408       .  A
C1046      C1047   1.389       .  A
C1046      H1055   1.085   1_655  S
C1047      S1051   1.805   1_655  S
C1048      C2150   1.452       .  S
C1048      C2457   1.403       .  A
C1049      C2456   1.406       .  A
C1049      C1050   1.400       .  A
C1049      H1056   1.084       .  S
C1050      C2453   1.410       .  A
C1050      S1052   1.799       .  S
S1051      H1054   1.406       .  S
S1052      H1053   1.407       .  S
O1057     Ni1063   1.903   1_554  S
O1058     Ni1081   1.905       .  S
O1059      H1082   0.967       .  S
O1059     Ni1785   1.885   1_455  S
C1060      O1077   1.277       .  A
C1060      O2477   1.275       .  A
C1060      C1397   1.450       .  S
O1061     Ni1080   1.906       .  S
O1062     Ni1080   1.915       .  S
O1062      C1064   1.269       .  A
Ni1063     O1066   1.919       .  S
Ni1063     O1068   1.906       .  S
C1064      O2482   1.272       .  A
C1064      C1352   1.486       .  S
O1065     Ni1081   1.892       .  S
O1065      C1071   1.277   1_545  A
O1066      C2479   1.278       .  A
C1067      C1364   1.472       .  S
O1068      C1070   1.267       .  A
O1069     Ni1080   1.913       .  S
O1069      C2468   1.275       .  A
C1070      O2484   1.270   1_455  A
C1070      C1340   1.480       .  S
C1071      O2474   1.279       .  A
C1071      C1385   1.453       .  S
H1072      O1073   0.966   1_565  S
O1073     Ni1779   1.889       .  S
O1074     Ni1075   1.922       .  S
O1074      C2472   1.268   1_455  A
Ni1075     O1079   1.913       .  S
Ni1075     O1077   1.896   1_455  S
Ni1075     O1777   1.889   1_455  S
O1076     Ni1081   1.928   1_565  S
O1076      C2478   1.269       .  A
C1078      C1373   1.478       .  S
Ni1081     O1763   1.885       .  S
O1083      C2501   1.275       .  A
O1084     Ni1091   1.897       .  S
O1084      C2502   1.279   1_455  A
O1085     Ni1091   1.943       .  S
O1085      C2503   1.286   1_455  A
O1086      C2504   1.286   1_455  A
O1087     Ni1092   1.947       .  S
O1087      C1096   1.287       .  A
O1088      C1095   1.285       .  A
O1089      C1094   1.276       .  A
O1090     Ni1092   1.907       .  S
O1090      C1093   1.280       .  A
Ni1091    Ni1796   2.392   1_455  S
Ni1092    Ni1795   2.388       .  S
C1093      O2491   1.274       .  A
C1093      C1388   1.448       .  S
C1094      O2492   1.279       .  A
C1094      C2808   1.451       .  S
C1095      O2493   1.287       .  A
C1095      C1325   1.506       .  S
C1096      O2494   1.286       .  A
C1096      C1313   1.511       .  S
O1097      C1107   1.293       .  A
O1098     Ni1105   1.974       .  S
O1098      C1108   1.292   1_565  A
O1099     Ni1105   1.913       .  S
O1099      C1109   1.279       .  A
O1100     Ni1105   1.907       .  S
O1101     Ni1106   1.905       .  S
O1102     Ni1106   1.901       .  S
O1104     Ni1106   1.975       .  S
C1107      C1292   1.554       .  S
C1109      C1376   1.488       .  S
O1111     Ni1119   1.917   1_655  S
O1111      C2529   1.281       .  A
O1112     Ni1119   1.910       .  S
O1112      C2530   1.279   1_556  A
O1113     Ni2527   1.972       .  S
O1113      C1123   1.292       .  A
O1114     Ni1119   1.970       .  S
O1114      C1124   1.292   1_556  A
O1115     Ni2528   1.973   1_455  S
O1116     Ni1120   1.973       .  S
O1117     Ni1120   1.927       .  S
O1118     Ni1120   1.920       .  S
Ni1119     O2521   1.972   1_455  S
Ni1119    Ni2176   2.377   1_456  S
Ni1120     O2523   1.983       .  S
Ni1120    Ni2175   2.375       .  S
C1121      O2519   1.282       .  A
C1121      C2745   1.481       .  S
C1122      O2520   1.280   1_554  A
C1123      C1265   1.546       .  S
O1125     Ni2541   1.898       .  S
O1125      C1135   1.279       .  A
O1126     Ni1133   1.908   1_455  S
O1126      C1136   1.277       .  A
O1127     Ni1133   1.944       .  S
O1127      C2545   1.286   1_655  A
O1128     Ni1133   1.938       .  S
O1128      C2546   1.285   1_655  A
O1129     Ni1134   1.950       .  S
O1129      C1138   1.288       .  A
O1130     Ni1134   1.946       .  S
O1130      C1137   1.287       .  A
O1131     Ni2542   1.898       .  S
O1131      C1136   1.278       .  A
O1132     Ni1134   1.906       .  S
O1132      C1135   1.276       .  A
Ni1133     O2533   1.896       .  S
Ni1133    Ni2542   2.388   1_655  S
Ni1134     O2539   1.897       .  S
Ni1134    Ni2541   2.389       .  S
C1135      C1253   1.453       .  S
C1136      C1241   1.454       .  S
C1137      O2535   1.286       .  A
C1137      C1328   1.509       .  S
C1138      O2536   1.285       .  A
C1138      C1316   1.509       .  S
O1139     Ni1145   1.930       .  S
O1139      C1160   1.270       .  A
O1140     Ni1163   1.874       .  S
O1140      C1149   1.258       .  A
O1141      H1164   0.966       .  S
O1141     Ni1145   1.929       .  S
O1141     Ni1163   1.901       .  S
O1141     Ni1157   1.905       .  S
C1142      O1159   1.264       .  A
C1142      O1151   1.278       .  A
C1142      C1229   1.468       .  S
O1143     Ni1162   1.938       .  S
O1143      C1149   1.273       .  A
O1144     Ni1162   1.903       .  S
O1144      C1146   1.266       .  A
Ni1145     O1148   1.933       .  S
Ni1145     O1150   1.891       .  S
C1146      O1156   1.269       .  A
C1146      C1205   1.472       .  S
O1147     Ni1163   1.879       .  S
O1147      C1153   1.263       .  A
O1148      C1153   1.275       .  A
C1149      C1244   1.458       .  S
O1150      C1152   1.265       .  A
O1151     Ni1162   1.943       .  S
C1152      O1158   1.269       .  A
C1152      C1193   1.463       .  S
C1153      C1217   1.477       .  S
H1154      O1155   0.963       .  S
O1155     Ni1163   1.889       .  S
O1155     Ni1157   1.888       .  S
O1155     Ni1162   1.920       .  S
O1156     Ni1157   1.914       .  S
Ni1157     O1161   1.876       .  S
Ni1157     O1159   1.875       .  S
O1158     Ni1163   1.918       .  S
C1160      O1161   1.255       .  A
C1160      C1256   1.458       .  S
O1165      C1175   1.280       .  A
O1166     Ni1173   1.907       .  S
O1166      C1176   1.276       .  A
O1167     Ni1173   1.970       .  S
O1167      C1177   1.292       .  A
O1168     Ni1173   1.970       .  S
O1169     Ni1174   1.971       .  S
O1169      C1178   1.292   1_554  A
O1170     Ni1174   1.973       .  S
O1171      C1176   1.279       .  A
O1172     Ni1174   1.901   1_556  S
O1172      C1175   1.275       .  A
C1175      C1232   1.454       .  S
C1176      C1220   1.454       .  S
C1177      C1277   1.545       .  S
C1178      C1268   1.552       .  S
O1179     Ni1187   1.914   1_565  S
O1179      C1189   1.279       .  A
O1180      C1190   1.278       .  A
O1181      C1191   1.292       .  A
O1182     Ni1187   1.981       .  S
O1182      C1192   1.294       .  A
O1183      C1192   1.292   1_565  A
O1184     Ni1188   1.978       .  S
O1184      C1191   1.293       .  A
O1185     Ni1188   1.900       .  S
O1185      C1190   1.277       .  A
O1186      C1189   1.279       .  A
C1189      C1208   1.465       .  S
C1190      C1196   1.461       .  S
C1191      C1304   1.551       .  S
C1192      C1289   1.555       .  S
C1193      C1194   1.401       .  A
C1193      C1198   1.410       .  A
C1194      C1195   1.392       .  A
C1194      H1203   1.084       .  S
C1195      C1196   1.412       .  A
C1195      S1199   1.804       .  S
C1196      C1197   1.401       .  A
C1197      C1198   1.392       .  A
C1197      H1204   1.084       .  S
C1198      S1200   1.799       .  S
S1199      H1202   1.407       .  S
S1200      H1201   1.407       .  S
C1205      C1206   1.403       .  A
C1205      C1210   1.415       .  A
C1206      C1207   1.388       .  A
C1206      H1215   1.084       .  S
C1207      C1208   1.409       .  A
C1207      S1211   1.803       .  S
C1208      C1209   1.404       .  A
C1209      C1210   1.402       .  A
C1209      H1216   1.084       .  S
C1210      S1212   1.804       .  S
S1211      H1214   1.406       .  S
S1212      H1213   1.407       .  S
C1217      C1218   1.404       .  A
C1217      C1222   1.420       .  A
C1218      C1219   1.395       .  A
C1218      H1227   1.084       .  S
C1219      C1220   1.408       .  A
C1219      S1223   1.803       .  S
C1220      C1221   1.394       .  A
C1221      C1222   1.396       .  A
C1221      H1228   1.083       .  S
C1222      S1224   1.811       .  S
S1223      H1226   1.405       .  S
S1224      H1225   1.407       .  S
C1229      C1230   1.400       .  A
C1229      C1234   1.417       .  A
C1230      C1231   1.393       .  A
C1230      H1239   1.084       .  S
C1231      C1232   1.409       .  A
C1231      S1235   1.799       .  S
C1232      C1233   1.395       .  A
C1233      C1234   1.398       .  A
C1233      H1240   1.083       .  S
C1234      S1236   1.808       .  S
S1235      H1238   1.405       .  S
S1236      H1237   1.407       .  S
C1241      C1242   1.402       .  A
C1241      C1246   1.407       .  A
C1242      C1243   1.395       .  A
C1242      H1251   1.084       .  S
C1243      C1244   1.408       .  A
C1243      S1247   1.803       .  S
C1244      C1245   1.402       .  A
C1245      C1246   1.392       .  A
C1245      H1252   1.085       .  S
C1246      S1248   1.805       .  S
S1247      H1250   1.407       .  S
S1248      H1249   1.407       .  S
C1253      C1254   1.399       .  A
C1253      C1258   1.407       .  A
C1254      C1255   1.391       .  A
C1254      H1263   1.085       .  S
C1255      C1256   1.409       .  A
C1255      S1259   1.802       .  S
C1256      C1257   1.402       .  A
C1257      C1258   1.394       .  A
C1257      H1264   1.084       .  S
C1258      S1260   1.802       .  S
S1259      H1262   1.404       .  S
S1260      H1261   1.405       .  S
C1265      C1270   1.427       .  A
C1266      C1267   1.426       .  A
C1266      H1275   1.083       .  S
C1267      S1271   1.800       .  S
C1268      C1269   1.418       .  A
C1269      C1270   1.430       .  A
C1269      H1276   1.083       .  S
C1270      S1272   1.801       .  S
S1271      H1274   1.407       .  S
S1272      H1273   1.408       .  S
C1277      C1282   1.426       .  A
C1278      C1279   1.429       .  A
C1278      H1287   1.082       .  S
C1279      S1283   1.804       .  S
C1280      C1281   1.414       .  A
C1281      C1282   1.428       .  A
C1281      H1288   1.082       .  S
C1282      S1284   1.806       .  S
S1283      H1286   1.407       .  S
S1284      H1285   1.407       .  S
C1289      C1290   1.417   1_545  A
C1290      C1291   1.430       .  A
C1290      H1299   1.083       .  S
C1291      C1292   1.427       .  A
C1291      S1295   1.798       .  S
C1293      C1294   1.430       .  A
C1293      H1300   1.083       .  S
C1294      S1296   1.800       .  S
S1295      H1298   1.407       .  S
S1296      H1297   1.408       .  S
C1301      C1306   1.430       .  A
C1302      C1303   1.431       .  A
C1302      H1311   1.083       .  S
C1303      S1307   1.801       .  S
C1304      C1305   1.416       .  A
C1305      C1306   1.430       .  A
C1305      H1312   1.083       .  S
C1306      S1308   1.799       .  S
S1307      H1310   1.407       .  S
S1308      H1309   1.407       .  S
C1313      C2722   1.410       .  A
C1313      C1318   1.420       .  A
C1314      C2721   1.410   1_455  A
C1314      C1315   1.413       .  A
C1314      H1323   1.083       .  S
C1315      C2724   1.419       .  A
C1315      S1319   1.803       .  S
C1316      C2723   1.418       .  A
C1316      C1317   1.409       .  A
C1317      C1318   1.414       .  A
C1317      H1324   1.084       .  S
C1318      S1320   1.803       .  S
S1319      H1322   1.402       .  S
S1320      H1321   1.404       .  S
C1325      C1326   1.408       .  A
C1325      C2738   1.419       .  A
C1326      C1327   1.413       .  A
C1326      H1335   1.084       .  S
C1327      C1328   1.421       .  A
C1327      S1331   1.804       .  S
C1328      C2737   1.408       .  A
C1329      C2736   1.409   1_455  A
C1329      C1330   1.413       .  A
C1329      H1336   1.084       .  S
C1330      C2733   1.419   1_455  A
C1330      S1332   1.804       .  S
S1331      H1334   1.403       .  S
S1332      H1333   1.401       .  S
C1337      C2529   1.481       .  S
C1337      C2746   1.405   1_655  A
C1338      C2745   1.404       .  A
C1338      C1339   1.399       .  A
C1338      H1347   1.084       .  S
C1339      C2748   1.414       .  A
C1339      S1343   1.803       .  S
C1340      C2747   1.413       .  A
C1340      C1341   1.405   1_455  A
C1342      S1344   1.804       .  S
S1343      H1346   1.406       .  S
S1344      H1345   1.407       .  S
C1349      C2758   1.408       .  A
C1350      C2757   1.406       .  A
C1350      C1351   1.398       .  A
C1350      H1359   1.084       .  S
C1351      C2760   1.411       .  A
C1351      S1355   1.804       .  S
C1352      C2759   1.414       .  A
C1353      C1354   1.400   1_554  A
C1353      H1360   1.084   1_554  S
C1354      S1356   1.799       .  S
S1355      H1358   1.407       .  S
S1356      H1357   1.405       .  S
C1361      C1362   1.408       .  A
C1362      C1363   1.395       .  A
C1362      H1371   1.083       .  S
C1363      C1364   1.408       .  A
C1363      S1367   1.803       .  S
C1365      C1366   1.398       .  A
C1365      H1372   1.082       .  S
C1366      S1368   1.811       .  S
S1367      H1370   1.408       .  S
S1368      H1369   1.407       .  S
C1373      C1374   1.404       .  A
C1374      C1375   1.400       .  A
C1374      H1383   1.083       .  S
C1375      C1376   1.418       .  A
C1375      S1379   1.810       .  S
C1377      C1378   1.397       .  A
C1377      H1384   1.082       .  S
C1378      S1380   1.812       .  S
S1379      H1382   1.407       .  S
S1380      H1381   1.407       .  S
C1385      C2794   1.399       .  A
C1386      C2793   1.401       .  A
C1386      C1387   1.394       .  A
C1386      H1395   1.084       .  S
C1387      C2796   1.409       .  A
C1387      S1391   1.803       .  S
C1388      C2795   1.409       .  A
C1389      C1390   1.386       .  A
C1389      H1396   1.084       .  S
C1390      S1392   1.805       .  S
S1391      H1394   1.404       .  S
S1392      H1393   1.407       .  S
C1397      C2810   1.406       .  A
C1398      C1399   1.385       .  A
C1398      H1407   1.085       .  S
C1399      S1403   1.807       .  S
C1400      C2502   1.445       .  S
C1400      C2809   1.402       .  A
C1401      C2808   1.402       .  A
C1401      C1402   1.394       .  A
C1401      H1408   1.084       .  S
C1402      C2805   1.407       .  A
C1402      S1404   1.799       .  S
S1403      H1406   1.403       .  S
S1404      H1405   1.405       .  S
O1409     Ni1415   1.900       .  S
O1409      C1782   1.264       .  A
O1410     Ni1433   1.899       .  S
O1410      C2123   1.265       .  A
O1411      H1434   0.966       .  S
O1411     Ni2119   1.900   1_545  S
O1411     Ni1779   1.921       .  S
C1412      O1429   1.278       .  A
C1412      C1749   1.463       .  S
O1413     Ni1432   1.905   1_556  S
O1413      C1771   1.265       .  A
O1414     Ni1432   1.916       .  S
O1414      C1416   1.268       .  A
Ni1415     O1418   1.913       .  S
Ni1415     O1420   1.904       .  S
Ni1415     O2115   1.896       .  S
C1416      C1704   1.492       .  S
O1417     Ni1433   1.877   1_455  S
O1417      C1423   1.272       .  A
C1419      O2114   1.265       .  A
C1419      O1765   1.265       .  A
C1419      C1716   1.472       .  S
O1420      C1422   1.266       .  A
O1421     Ni1432   1.924       .  S
C1422      C1692   1.485       .  S
C1423      C1737   1.450       .  S
H1424      O1425   0.966       .  S
O1425     Ni1785   1.916   1_554  S
O1425     Ni2136   1.897       .  S
O1426     Ni1427   1.924       .  S
Ni1427     O1431   1.907       .  S
Ni1427     O1429   1.898       .  S
Ni1427     O1763   1.913   1_554  S
O1428     Ni1433   1.930       .  S
C1430      O1761   1.263       .  A
C1430      O2135   1.264       .  A
C1430      C1725   1.469       .  S
O1431      C2134   1.265   1_545  A
Ni1432     O2129   1.898       .  S
Ni1433     O1777   1.911       .  S
O1435     Ni2147   1.901       .  S
O1436     Ni1443   1.892       .  S
O1437     Ni1443   1.950   1_545  S
O1438     Ni2147   1.939       .  S
O1439     Ni1444   1.936       .  S
O1439      C1448   1.284   1_655  A
O1440     Ni2148   1.934   1_545  S
O1440      C1447   1.285   1_655  A
O1441     Ni2148   1.905       .  S
O1441      C1446   1.277       .  A
O1442     Ni1444   1.895       .  S
O1442      C1445   1.279   1_655  A
Ni1443     O2139   1.894       .  S
Ni1443     O2142   1.947       .  S
Ni1444     O2144   1.940       .  S
Ni1444     O2145   1.894       .  S
C1445      C1740   1.441       .  S
C1447      C1677   1.508       .  S
C1448      C1665   1.500       .  S
O1449     Ni1809   1.973       .  S
O1449      C1459   1.292       .  A
O1450     Ni1457   1.980       .  S
O1450      C1460   1.294       .  A
O1451     Ni1457   1.906       .  S
O1451      C1461   1.279       .  A
O1452     Ni1457   1.903   1_556  S
O1452      C1814   1.277       .  A
O1453     Ni1458   1.906       .  S
O1453      C2166   1.280       .  A
O1454     Ni1458   1.902       .  S
O1454      C2517   1.279   1_545  A
O1455     Ni1810   1.978   1_554  S
O1455      C2164   1.294       .  A
O1456     Ni1458   1.984       .  S
O1456      C2163   1.294       .  A
Ni1457     O1801   1.976   1_554  S
Ni1457    Ni2514   2.376       .  S
Ni1458     O1807   1.980       .  S
Ni1458    Ni2513   2.370   1_545  S
C1459      O2160   1.295       .  A
C1459      C1644   1.561       .  S
C1460      O2159   1.293       .  A
C1460      C2357   1.561       .  S
C1461      O2510   1.277       .  A
C1461      C1728   1.457       .  S
C1462      O1804   1.277       .  A
C1462      O2157   1.279       .  A
C1462      C2417   1.483       .  S
O1463     Ni1471   1.925       .  S
O1464     Ni1471   1.921       .  S
O1465      C1475   1.291       .  A
O1466     Ni1471   1.963       .  S
O1466      C1476   1.290       .  A
O1467      C1828   1.292       .  A
O1468     Ni1472   1.968       .  S
O1468      C1827   1.291   1_554  A
O1469     Ni1472   1.923       .  S
O1469      C1826   1.282   1_655  A
O1470     Ni1472   1.918       .  S
O1470      C1825   1.280   1_554  A
C1473      O1822   1.280       .  A
C1474      O1821   1.282   1_455  A
C1474      C2053   1.482       .  S
C1475      O1820   1.292       .  A
C1475      C1617   1.546       .  S
C1476      O1819   1.291       .  A
C1476      C1984   1.546       .  S
O1477      C1487   1.280       .  A
O1478     Ni1485   1.903       .  S
O1478      C1488   1.276       .  A
O1479     Ni1485   1.944       .  S
O1480     Ni1485   1.938       .  S
O1481     Ni1486   1.945       .  S
O1481      C1490   1.287   1_455  A
O1482     Ni1486   1.942       .  S
O1482      C1489   1.286   1_455  A
O1483      C1488   1.278       .  A
O1484     Ni1486   1.900   1_655  S
O1484      C1487   1.275       .  A
C1487      C1605   1.455       .  S
C1488      C1593   1.448       .  S
C1489      C1680   1.503       .  S
C1490      C1668   1.506       .  S
O1491     Ni1497   1.909       .  S
O1491      C1512   1.265       .  A
O1492     Ni1515   1.865       .  S
O1492      C1501   1.257       .  A
O1493      H1516   0.966       .  S
O1493     Ni1497   1.900       .  S
O1493     Ni1515   1.872       .  S
O1493     Ni1509   1.901       .  S
C1494      O1511   1.269       .  A
C1494      O1503   1.278       .  A
C1494      C1581   1.467       .  S
O1495     Ni1514   1.940       .  S
O1495      C1501   1.276       .  A
O1496     Ni1514   1.905       .  S
O1496      C1498   1.267       .  A
Ni1497     O1500   1.916       .  S
Ni1497     O1502   1.898       .  S
C1498      O1508   1.269       .  A
C1498      C1557   1.477       .  S
O1499     Ni1515   1.906       .  S
O1499      C1505   1.274       .  A
O1500      C1505   1.276       .  A
C1501      C1596   1.453       .  S
O1502      C1504   1.264       .  A
O1503     Ni1514   1.945       .  S
C1504      O1510   1.263       .  A
C1504      C1545   1.467       .  S
C1505      C1569   1.460       .  S
H1506      O1507   0.966       .  S
O1507     Ni1515   1.907       .  S
O1507     Ni1509   1.895       .  S
O1507     Ni1514   1.911       .  S
O1508     Ni1509   1.906       .  S
Ni1509     O1513   1.899       .  S
Ni1509     O1511   1.884       .  S
O1510     Ni1515   1.901       .  S
C1512      O1513   1.262       .  A
C1512      C1608   1.453       .  S
O1517     Ni1877   1.896       .  S
O1517      C1527   1.277       .  A
O1518     Ni1525   1.907   1_554  S
O1518      C1528   1.278       .  A
O1519     Ni1525   1.974   1_554  S
O1519      C1529   1.293       .  A
O1520     Ni1525   1.970       .  S
O1520      C1882   1.291       .  A
O1521     Ni1526   1.965       .  S
O1521      C1530   1.290       .  A
O1522     Ni1526   1.964       .  S
O1522      C1881   1.290       .  A
O1523     Ni1878   1.900       .  S
O1523      C1528   1.279       .  A
O1524     Ni1526   1.920       .  S
O1524      C1527   1.279       .  A
Ni1525     O1869   1.902       .  S
Ni1525    Ni1878   2.379   1_556  S
Ni1526     O1875   1.909       .  S
Ni1526    Ni1877   2.381       .  S
C1527      C1584   1.458       .  S
C1528      C1572   1.467       .  S
C1529      O1874   1.292       .  A
C1529      C1629   1.546       .  S
C1530      O1872   1.292       .  A
C1530      C1620   1.547       .  S
O1531     Ni1539   1.911       .  S
O1531      C1541   1.279       .  A
O1532     Ni2243   1.900       .  S
O1532      C1542   1.278       .  A
O1533     Ni2243   1.979       .  S
O1533      C1543   1.294   1_545  A
O1534     Ni1539   1.977       .  S
O1534      C1544   1.293       .  A
O1535     Ni2244   1.986       .  S
O1535      C1544   1.295       .  A
O1536     Ni1540   1.975       .  S
O1536      C1543   1.293       .  A
O1537     Ni1540   1.900   1_545  S
O1537      C1542   1.277       .  A
O1538     Ni2244   1.894       .  S
O1538      C1541   1.276       .  A
Ni1539     O2236   1.903       .  S
Ni1539     O2237   1.977       .  S
Ni1539    Ni2244   2.379       .  S
Ni1540     O2239   1.979       .  S
Ni1540     O2242   1.901       .  S
Ni1540    Ni2243   2.378   1_565  S
C1541      C1560   1.465       .  S
C1542      C1548   1.458       .  S
C1543      C1656   1.555       .  S
C1544      C1641   1.557       .  S
C1545      C1546   1.403       .  A
C1545      C1550   1.414       .  A
C1546      C1547   1.392       .  A
C1546      H1555   1.084       .  S
C1547      C1548   1.411       .  A
C1547      S1551   1.804       .  S
C1548      C1549   1.399       .  A
C1549      C1550   1.391       .  A
C1549      H1556   1.085       .  S
C1550      S1552   1.803       .  S
S1551      H1554   1.407       .  S
S1552      H1553   1.408       .  S
C1557      C1558   1.406       .  A
C1557      C1562   1.417       .  A
C1558      C1559   1.383       .  A
C1558      H1567   1.084       .  S
C1559      C1560   1.410       .  A
C1559      S1563   1.804       .  S
C1560      C1561   1.404       .  A
C1561      C1562   1.400       .  A
C1561      H1568   1.084       .  S
C1562      S1564   1.802       .  S
S1563      H1566   1.405       .  S
S1564      H1565   1.406       .  S
C1569      C1570   1.400       .  A
C1569      C1574   1.411       .  A
C1570      C1571   1.398       .  A
C1570      H1579   1.084       .  S
C1571      C1572   1.416       .  A
C1571      S1575   1.803       .  S
C1572      C1573   1.400       .  A
C1573      C1574   1.389       .  A
C1573      H1580   1.084       .  S
C1574      S1576   1.805       .  S
S1575      H1578   1.407       .  S
S1576      H1577   1.407       .  S
C1581      C1582   1.398       .  A
C1581      C1586   1.412       .  A
C1582      C1583   1.394       .  A
C1582      H1591   1.084       .  S
C1583      C1584   1.411       .  A
C1583      S1587   1.801       .  S
C1584      C1585   1.398       .  A
C1585      C1586   1.399       .  A
C1585      H1592   1.083       .  S
C1586      S1588   1.806       .  S
S1587      H1590   1.406       .  S
S1588      H1589   1.407       .  S
C1593      C1594   1.401       .  A
C1593      C1598   1.406       .  A
C1594      C1595   1.393       .  A
C1594      H1603   1.085       .  S
C1595      C1596   1.407       .  A
C1595      S1599   1.804       .  S
C1596      C1597   1.402       .  A
C1597      C1598   1.390       .  A
C1597      H1604   1.085       .  S
C1598      S1600   1.805       .  S
S1599      H1602   1.406       .  S
S1600      H1601   1.407       .  S
C1605      C1606   1.401       .  A
C1605      C1610   1.408       .  A
C1606      C1607   1.397       .  A
C1606      H1615   1.083       .  S
C1607      C1608   1.409       .  A
C1607      S1611   1.809       .  S
C1608      C1609   1.399       .  A
C1609      C1610   1.390       .  A
C1609      H1616   1.084       .  S
C1610      S1612   1.801       .  S
S1611      H1614   1.407       .  S
S1612      H1613   1.405       .  S
C1617      C1970   1.414       .  A
C1617      C1622   1.428       .  A
C1618      C1969   1.414   1_554  A
C1618      C1619   1.426       .  A
C1618      H1627   1.083       .  S
C1619      C1972   1.427   1_554  A
C1619      S1623   1.800       .  S
C1620      C1971   1.430       .  A
C1620      C1621   1.415       .  A
C1621      C1622   1.426       .  A
C1621      H1628   1.083       .  S
C1622      S1624   1.800       .  S
S1623      H1626   1.408       .  S
S1624      H1625   1.408       .  S
C1629      C1982   1.412   1_554  A
C1629      C1634   1.423       .  A
C1630      C1981   1.413       .  A
C1630      C1631   1.426       .  A
C1630      H1639   1.081       .  S
C1631      C1984   1.426       .  A
C1631      S1635   1.807       .  S
C1632      C1828   1.550       .  S
C1632      C1983   1.426   1_554  A
C1632      C1633   1.420       .  A
C1633      C1634   1.434       .  A
C1633      H1640   1.082       .  S
C1634      S1636   1.805       .  S
S1635      H1638   1.406       .  S
S1636      H1637   1.407       .  S
C1641      C1642   1.416       .  A
C1641      C2350   1.428       .  A
C1642      C1643   1.431       .  A
C1642      H1651   1.082       .  S
C1643      C1644   1.432       .  A
C1643      S1647   1.798       .  S
C1644      C2349   1.418       .  A
C1645      C2348   1.418       .  A
C1645      C1646   1.436       .  A
C1645      H1652   1.083       .  S
C1646      C2345   1.432       .  A
C1646      S1648   1.799       .  S
S1647      H1650   1.407       .  S
S1648      H1649   1.407       .  S
C1653      C2164   1.550       .  S
C1653      C2358   1.415   1_545  A
C1653      C1658   1.428       .  A
C1654      C2357   1.420       .  A
C1654      C1655   1.432       .  A
C1654      H1663   1.083       .  S
C1655      C2360   1.426       .  A
C1655      S1659   1.801       .  S
C1656      C2359   1.429       .  A
C1656      C1657   1.417   1_565  A
C1657      C1658   1.430       .  A
C1657      H1664   1.083       .  S
C1658      S1660   1.801       .  S
S1659      H1662   1.407       .  S
S1660      H1661   1.406       .  S
C1665      C1670   1.417   1_455  A
C1666      C1667   1.412       .  A
C1666      H1675   1.083       .  S
C1667      S1671   1.804       .  S
C1668      C1669   1.409       .  A
C1669      C1670   1.410       .  A
C1669      H1676   1.084       .  S
C1670      S1672   1.804       .  S
S1671      H1674   1.402       .  S
S1672      H1673   1.405       .  S
C1677      C1678   1.408   1_455  A
C1678      C1679   1.410       .  A
C1678      H1687   1.084       .  S
C1679      C1680   1.418       .  A
C1679      S1683   1.805       .  S
C1681      C1682   1.412       .  A
C1681      H1688   1.084       .  S
C1682      S1684   1.802       .  S
S1683      H1686   1.402       .  S
S1684      H1685   1.406       .  S
C1689      C2046   1.415       .  A
C1690      C1691   1.396       .  A
C1690      H1699   1.084       .  S
C1691      S1695   1.804       .  S
C1692      C1693   1.404       .  A
C1693      C2046   1.404       .  A
C1693      H2052   1.084       .  S
C1694      C2041   1.418   1_554  A
C1694      C2045   1.401   1_554  A
C1694      S1696   1.803       .  S
S1695      H1698   1.407       .  S
S1696      H1697   1.408       .  S
H1700      C2045   1.084   1_554  S
C1701      C1826   1.486       .  S
C1701      C2058   1.415   1_554  A
C1702      C1703   1.398       .  A
C1702      H1711   1.084       .  S
C1703      S1707   1.804       .  S
C1704      C2057   1.408   1_655  A
C1705      C2056   1.405   1_455  A
C1705      C1706   1.403       .  A
C1705      H1712   1.084       .  S
C1706      C2053   1.416       .  A
C1706      S1708   1.803       .  S
S1707      H1710   1.407       .  S
S1708      H1709   1.407       .  S
C1713      C2166   1.483       .  S
C1713      C1714   1.409       .  A
C1713      C2070   1.420   1_545  A
C1714      C1715   1.395       .  A
C1714      H1723   1.083       .  S
C1715      C1716   1.409       .  A
C1715      S1719   1.804       .  S
C1716      C2069   1.402   1_545  A
C1717      C2068   1.405   1_565  A
C1717      C1718   1.399       .  A
C1717      H1724   1.082       .  S
C1718      C2065   1.415   1_565  A
C1718      S1720   1.807       .  S
S1719      H1722   1.407       .  S
S1720      H1721   1.407       .  S
C1725      C1726   1.407       .  A
C1725      C2786   1.411       .  A
C1726      C1727   1.392   1_554  A
C1726      H1735   1.082   1_554  S
C1727      C1728   1.403   1_556  A
C1727      S1731   1.810       .  S
C1728      C2785   1.402       .  A
C1729      C2784   1.408   1_545  A
C1729      C1730   1.397       .  A
C1729      H1736   1.081       .  S
C1730      C2781   1.411   1_545  A
C1730      S1732   1.811       .  S
S1731      H1734   1.407       .  S
S1732      H1733   1.406       .  S
C1737      C2446   1.411       .  A
C1738      C1739   1.394       .  A
C1738      H1747   1.084       .  S
C1739      S1743   1.803       .  S
C1740      C2445   1.396       .  A
C1741      C2444   1.396   1_545  A
C1741      C1742   1.385       .  A
C1741      H1748   1.085       .  S
C1742      C2441   1.411   1_545  A
C1742      S1744   1.806       .  S
S1743      H1746   1.405       .  S
S1744      H1745   1.407       .  S
C1749      C2454   1.402   1_545  A
C1750      C2453   1.403       .  A
C1750      C1751   1.385       .  A
C1750      H1759   1.085       .  S
C1751      C2456   1.406       .  A
C1751      S1755   1.806       .  S
C1752      C2455   1.408       .  A
C1753      C1754   1.398       .  A
C1753      H1760   1.084       .  S
C1754      S1756   1.802       .  S
S1755      H1758   1.404       .  S
S1756      H1757   1.398       .  S
O1761     Ni1767   1.898   1_554  S
O1762     Ni1785   1.907       .  S
O1762      C2475   1.267       .  A
O1763      H1786   0.966       .  S
O1763     Ni2471   1.901   1_545  S
C1764      O1781   1.279       .  A
C1764      C2101   1.461       .  S
O1765     Ni1784   1.903       .  S
O1766     Ni1784   1.908       .  S
O1766      C1768   1.267       .  A
Ni1767     O1770   1.918       .  S
Ni1767     O1772   1.898       .  S
Ni1767     O2467   1.902       .  S
C1768      C2056   1.479       .  S
O1769     Ni1785   1.895   1_455  S
O1769      C1775   1.278       .  A
C1771      O2466   1.267       .  A
C1771      C2068   1.476       .  S
O1772      C1774   1.264       .  A
O1773     Ni1784   1.907       .  S
C1774      C2044   1.468       .  S
C1775      C2089   1.447       .  S
H1776      O1777   0.966       .  S
O1777     Ni2488   1.901       .  S
O1778     Ni1779   1.929       .  S
Ni1779     O1783   1.913       .  S
Ni1779     O1781   1.904       .  S
O1780     Ni1785   1.932       .  S
C1782      O2487   1.267       .  A
C1782      C2077   1.486       .  S
O1783      C2486   1.265   1_545  A
Ni1784     O2481   1.902       .  S
O1787     Ni2499   1.901       .  S
O1788     Ni1795   1.893       .  S
O1789     Ni1795   1.948   1_545  S
O1790     Ni2499   1.937       .  S
O1791     Ni1796   1.944       .  S
O1791      C1800   1.287       .  A
O1792     Ni2500   1.944   1_545  S
O1792      C1799   1.286       .  A
O1793     Ni2500   1.897       .  S
O1793      C1798   1.275       .  A
O1794     Ni1796   1.888       .  S
O1794      C1797   1.277   1_655  A
Ni1795     O2491   1.894       .  S
Ni1795     O2494   1.943       .  S
Ni1796     O2496   1.944       .  S
Ni1796     O2497   1.890       .  S
C1797      C2092   1.440       .  S
C1799      C2029   1.509       .  S
C1800      C2017   1.502       .  S
O1801      C1811   1.293       .  A
O1802     Ni1809   1.969       .  S
O1802      C1812   1.290       .  A
O1803     Ni1809   1.915       .  S
O1803      C1813   1.280       .  A
O1804     Ni1809   1.904       .  S
O1805     Ni1810   1.899       .  S
O1805      C2518   1.278       .  A
O1806     Ni1810   1.889   1_554  S
O1806      C2165   1.277   1_545  A
O1807      C2516   1.294       .  A
O1808     Ni1810   1.975       .  S
O1808      C2515   1.293   1_545  A
Ni1809    Ni2162   2.372       .  S
Ni1810    Ni2161   2.373   1_545  S
C1811      O2512   1.293       .  A
C1811      C1996   1.548       .  S
C1812      O2511   1.295       .  A
C1812      C2709   1.550       .  S
C1813      O2158   1.279       .  A
C1813      C2080   1.482       .  S
C1814      O2509   1.280       .  A
C1814      C2769   1.480       .  S
O1815     Ni1823   1.918       .  S
O1816     Ni1823   1.917       .  S
O1817      C1827   1.292       .  A
O1818     Ni1823   1.966       .  S
O1818      C1828   1.291   1_556  A
O1820     Ni1824   1.970       .  S
O1821     Ni1824   1.919       .  S
O1822     Ni1824   1.915       .  S
C1827      C1969   1.546       .  S
O1829      C1839   1.279       .  A
O1830     Ni1837   1.905       .  S
O1830      C1840   1.276       .  A
O1831     Ni1837   1.945       .  S
O1832     Ni1837   1.934       .  S
O1833     Ni1838   1.941       .  S
O1833      C1842   1.286       .  A
O1834     Ni1838   1.939       .  S
O1834      C1841   1.285   1_455  A
O1835      C1840   1.279       .  A
O1836     Ni1838   1.906   1_655  S
O1836      C1839   1.276       .  A
C1839      C1957   1.455       .  S
C1840      C1945   1.453       .  S
C1841      C2032   1.504       .  S
C1842      C2020   1.500   1_455  S
O1843     Ni1849   1.909       .  S
O1843      C1864   1.268       .  A
O1844     Ni1867   1.880       .  S
O1844      C1853   1.259       .  A
O1845      H1868   0.966       .  S
O1845     Ni1849   1.923       .  S
O1845     Ni1867   1.901       .  S
O1845     Ni1861   1.925       .  S
C1846      O1863   1.267       .  A
C1846      O1855   1.278       .  A
C1846      C1933   1.447       .  S
O1847     Ni1866   1.935       .  S
O1847      C1853   1.272       .  A
O1848     Ni1866   1.901       .  S
O1848      C1850   1.265       .  A
Ni1849     O1852   1.934       .  S
Ni1849     O1854   1.895       .  S
C1850      O1860   1.269       .  A
C1850      C1909   1.474       .  S
O1851     Ni1867   1.872       .  S
O1851      C1857   1.258       .  A
O1852      C1857   1.269       .  A
C1853      C1948   1.457       .  S
O1854      C1856   1.268       .  A
O1855     Ni1866   1.934       .  S
C1856      O1862   1.278       .  A
C1856      C1897   1.462       .  S
C1857      C1921   1.463       .  S
H1858      O1859   0.965       .  S
O1859     Ni1867   1.873       .  S
O1859     Ni1861   1.883       .  S
O1859     Ni1866   1.909       .  S
O1860     Ni1861   1.911       .  S
Ni1861     O1865   1.886       .  S
Ni1861     O1863   1.876       .  S
O1862     Ni1867   1.941       .  S
C1864      O1865   1.259       .  A
C1864      C1960   1.450       .  S
O1869      C1879   1.278       .  A
O1870     Ni1877   1.898       .  S
O1870      C1880   1.273       .  A
O1871     Ni1877   1.967       .  S
O1871      C1881   1.292       .  A
O1872     Ni1877   1.970       .  S
O1873     Ni1878   1.970   1_556  S
O1873      C1882   1.292       .  A
O1874     Ni1878   1.973       .  S
O1875      C1880   1.281       .  A
O1876     Ni1878   1.909   1_556  S
O1876      C1879   1.279       .  A
C1879      C1936   1.468       .  S
C1880      C1924   1.450       .  S
C1881      C1981   1.545       .  S
C1882      C1972   1.547       .  S
O1883     Ni1891   1.917       .  S
O1883      C1893   1.279       .  A
O1884     Ni2595   1.904       .  S
O1884      C1894   1.278       .  A
O1885     Ni2595   1.978       .  S
O1885      C1895   1.294   1_545  A
O1886     Ni1891   1.972       .  S
O1886      C1896   1.292       .  A
O1887     Ni2596   1.976       .  S
O1887      C1896   1.293       .  A
O1888     Ni1892   1.978       .  S
O1888      C1895   1.293       .  A
O1889     Ni1892   1.907   1_545  S
O1889      C1894   1.278       .  A
O1890     Ni2596   1.900       .  S
O1890      C1893   1.278       .  A
Ni1891     O2588   1.909       .  S
Ni1891     O2589   1.971       .  S
Ni1891    Ni2596   2.376       .  S
Ni1892     O2591   1.974       .  S
Ni1892     O2594   1.899       .  S
Ni1892    Ni2595   2.379   1_565  S
C1893      C1912   1.467       .  S
C1894      C1900   1.465       .  S
C1895      C2008   1.552       .  S
C1896      C1993   1.556       .  S
C1897      C1898   1.400       .  A
C1897      C1902   1.408       .  A
C1898      C1899   1.394       .  A
C1898      H1907   1.084       .  S
C1899      C1900   1.412       .  A
C1899      S1903   1.803       .  S
C1900      C1901   1.403       .  A
C1901      C1902   1.395       .  A
C1901      H1908   1.084       .  S
C1902      S1904   1.800       .  S
S1903      H1906   1.407       .  S
S1904      H1905   1.408       .  S
C1909      C1910   1.403       .  A
C1909      C1914   1.416       .  A
C1910      C1911   1.387       .  A
C1910      H1919   1.083       .  S
C1911      C1912   1.409       .  A
C1911      S1915   1.805       .  S
C1912      C1913   1.403       .  A
C1913      C1914   1.402       .  A
C1913      H1920   1.084       .  S
C1914      S1916   1.803       .  S
S1915      H1918   1.407       .  S
S1916      H1917   1.407       .  S
C1921      C1922   1.401       .  A
C1921      C1926   1.413       .  A
C1922      C1923   1.392       .  A
C1922      H1931   1.084       .  S
C1923      C1924   1.408       .  A
C1923      S1927   1.803       .  S
C1924      C1925   1.396       .  A
C1925      C1926   1.395       .  A
C1925      H1932   1.083       .  S
C1926      S1928   1.808       .  S
S1927      H1930   1.404       .  S
S1928      H1929   1.407       .  S
C1933      C1934   1.391       .  A
C1933      C1938   1.406       .  A
C1934      C1935   1.386       .  A
C1934      H1943   1.085       .  S
C1935      C1936   1.416       .  A
C1935      S1939   1.797       .  S
C1936      C1937   1.404       .  A
C1937      C1938   1.400       .  A
C1937      H1944   1.083       .  S
C1938      S1940   1.805       .  S
S1939      H1942   1.396       .  S
S1940      H1941   1.407       .  S
C1945      C1946   1.402       .  A
C1945      C1950   1.406       .  A
C1946      C1947   1.395       .  A
C1946      H1955   1.084       .  S
C1947      C1948   1.408       .  A
C1947      S1951   1.804       .  S
C1948      C1949   1.401       .  A
C1949      C1950   1.392       .  A
C1949      H1956   1.084       .  S
C1950      S1952   1.804       .  S
S1951      H1954   1.407       .  S
S1952      H1953   1.407       .  S
C1957      C1958   1.402       .  A
C1957      C1962   1.408       .  A
C1958      C1959   1.392       .  A
C1958      H1967   1.085       .  S
C1959      C1960   1.406       .  A
C1959      S1963   1.804       .  S
C1960      C1961   1.400       .  A
C1961      C1962   1.393       .  A
C1961      H1968   1.084       .  S
C1962      S1964   1.801       .  S
S1963      H1966   1.405       .  S
S1964      H1965   1.405       .  S
C1969      C1974   1.428       .  A
C1970      C1971   1.425       .  A
C1970      H1979   1.083       .  S
C1971      S1975   1.801       .  S
C1972      C1973   1.416       .  A
C1973      C1974   1.429       .  A
C1973      H1980   1.083       .  S
C1974      S1976   1.801       .  S
S1975      H1978   1.406       .  S
S1976      H1977   1.407       .  S
C1981      C1986   1.427       .  A
C1982      C1983   1.425       .  A
C1982      H1991   1.076       .  S
C1983      S1987   1.807       .  S
C1984      C1985   1.416       .  A
C1985      C1986   1.430       .  A
C1985      H1992   1.082       .  S
C1986      S1988   1.807       .  S
S1987      H1990   1.407       .  S
S1988      H1989   1.407       .  S
C1993      C1994   1.417       .  A
C1993      C2702   1.432       .  A
C1994      C1995   1.429       .  A
C1994      H2003   1.083       .  S
C1995      C1996   1.425       .  A
C1995      S1999   1.799       .  S
C1996      C2701   1.414       .  A
C1997      C2700   1.416   1_545  A
C1997      C1998   1.429       .  A
C1997      H2004   1.083       .  S
C1998      C2697   1.428   1_545  A
C1998      S2000   1.800       .  S
S1999      H2002   1.407       .  S
S2000      H2001   1.407       .  S
C2005      C2516   1.563       .  S
C2005      C2710   1.421   1_545  A
C2005      C2010   1.432       .  A
C2006      C2709   1.416       .  A
C2006      C2007   1.429       .  A
C2006      H2015   1.083       .  S
C2007      C2712   1.429       .  A
C2007      S2011   1.800       .  S
C2008      C2711   1.428       .  A
C2008      C2009   1.413   1_565  A
C2009      C2010   1.430       .  A
C2009      H2016   1.083       .  S
C2010      S2012   1.798       .  S
S2011      H2014   1.408       .  S
S2012      H2013   1.408       .  S
C2017      C2022   1.420       .  A
C2018      C2019   1.410       .  A
C2018      H2027   1.084       .  S
C2019      S2023   1.804       .  S
C2020      C2021   1.407       .  A
C2021      C2022   1.410       .  A
C2021      H2028   1.084       .  S
C2022      S2024   1.804       .  S
S2023      H2026   1.403       .  S
S2024      H2025   1.401       .  S
C2029      C2030   1.410       .  A
C2030      C2031   1.414       .  A
C2030      H2039   1.084       .  S
C2031      C2032   1.420       .  A
C2031      S2035   1.805       .  S
C2033      C2034   1.411       .  A
C2033      H2040   1.083       .  S
C2034      S2036   1.802       .  S
S2035      H2038   1.403       .  S
S2036      H2037   1.406       .  S
C2042      C2043   1.400       .  A
C2042      H2051   1.084       .  S
C2043      S2047   1.803       .  S
C2044      C2045   1.401       .  A
C2046      S2048   1.803       .  S
S2047      H2050   1.407       .  S
S2048      H2049   1.408       .  S
C2054      C2055   1.402       .  A
C2054      H2063   1.084       .  S
C2055      S2059   1.804       .  S
C2057      C2058   1.406   1_554  A
C2057      H2064   1.083   1_554  S
C2058      S2060   1.803       .  S
S2059      H2062   1.407       .  S
S2060      H2061   1.407       .  S
C2065      C2518   1.478       .  S
C2065      C2066   1.405       .  A
C2066      C2067   1.392       .  A
C2066      H2075   1.084       .  S
C2067      C2068   1.413       .  A
C2067      S2071   1.805       .  S
C2069      C2070   1.396       .  A
C2069      H2076   1.082       .  S
C2070      S2072   1.812       .  S
S2071      H2074   1.408       .  S
S2072      H2073   1.407       .  S
C2077      C2078   1.409       .  A
C2077      C2434   1.414       .  A
C2078      C2079   1.399       .  A
C2078      H2087   1.082       .  S
C2079      C2080   1.412       .  A
C2079      S2083   1.811       .  S
C2080      C2433   1.407       .  A
C2081      C2432   1.409   1_545  A
C2081      C2082   1.394       .  A
C2081      H2088   1.081       .  S
C2082      C2429   1.411   1_545  A
C2082      S2084   1.812       .  S
S2083      H2086   1.407       .  S
S2084      H2085   1.407       .  S
C2089      C2798   1.408       .  A
C2090      C2091   1.396       .  A
C2090      H2099   1.084       .  S
C2091      S2095   1.803       .  S
C2092      C2797   1.398       .  A
C2093      C2796   1.397   1_545  A
C2093      C2094   1.387       .  A
C2093      H2100   1.085       .  S
C2094      C2793   1.410   1_545  A
C2094      S2096   1.805       .  S
S2095      H2098   1.404       .  S
S2096      H2097   1.407       .  S
C2101      C2806   1.402   1_545  A
C2102      C2805   1.402       .  A
C2102      C2103   1.387       .  A
C2102      H2111   1.085       .  S
C2103      C2808   1.407       .  A
C2103      S2107   1.807       .  S
C2104      C2807   1.408       .  A
C2105      C2106   1.393       .  A
C2105      H2112   1.084       .  S
C2106      S2108   1.799       .  S
S2107      H2110   1.403       .  S
S2108      H2109   1.406       .  S
O2113     Ni2119   1.898       .  S
O2113      C2486   1.262       .  A
O2114     Ni2137   1.899       .  S
O2115      H2138   0.966       .  S
O2115     Ni2483   1.911       .  S
C2116      O2133   1.275       .  A
C2116      C2453   1.465       .  S
O2117     Ni2136   1.901   1_556  S
O2117      C2475   1.265       .  A
O2118     Ni2136   1.913       .  S
O2118      C2120   1.268       .  A
Ni2119     O2122   1.924       .  S
Ni2119     O2124   1.898       .  S
C2120      C2408   1.487       .  S
O2121     Ni2137   1.879   1_465  S
O2121      C2127   1.272       .  A
C2123      O2469   1.264       .  A
C2123      C2420   1.471       .  S
O2124      C2126   1.264       .  A
O2125     Ni2136   1.913       .  S
C2126      C2396   1.487       .  S
C2127      C2441   1.452       .  S
H2128      O2129   0.966   1_565  S
O2129     Ni2489   1.919   1_554  S
O2130     Ni2131   1.919       .  S
Ni2131     O2135   1.907       .  S
Ni2131     O2133   1.895       .  S
Ni2131     O2467   1.917   1_554  S
O2132     Ni2137   1.929   1_565  S
C2134      O2465   1.265       .  A
C2134      C2429   1.473       .  S
Ni2137     O2481   1.907       .  S
O2140     Ni2147   1.904       .  S
O2141     Ni2147   1.939       .  S
O2143     Ni2148   1.939       .  S
O2143      C2152   1.285   1_655  A
O2144      C2151   1.285   1_655  A
O2145      C2150   1.277       .  A
O2146     Ni2148   1.900       .  S
O2146      C2149   1.279   1_655  A
C2149      C2444   1.445       .  S
C2151      C2381   1.509       .  S
C2152      C2369   1.507       .  S
O2153     Ni2513   1.983       .  S
O2153      C2163   1.294   1_565  A
O2154     Ni2161   1.970   1_554  S
O2154      C2164   1.291   1_565  A
O2155     Ni2161   1.919   1_554  S
O2155      C2165   1.281       .  A
O2156     Ni2161   1.915       .  S
O2156      C2518   1.280   1_565  A
O2157     Ni2162   1.906       .  S
O2158     Ni2162   1.905       .  S
O2159     Ni2514   1.977       .  S
O2160     Ni2162   1.984       .  S
Ni2161     O2505   1.973       .  S
Ni2162     O2511   1.982       .  S
C2163      C2348   1.559       .  S
C2165      C2432   1.485       .  S
C2166      O2508   1.277   1_545  A
O2167     Ni2175   1.917       .  S
O2168     Ni2175   1.919       .  S
O2169      C2179   1.289       .  A
O2170     Ni2175   1.964       .  S
O2170      C2180   1.290       .  A
O2171      C2532   1.291   1_554  A
O2172     Ni2176   1.967       .  S
O2172      C2531   1.291   1_554  A
O2173     Ni2176   1.926   1_455  S
O2173      C2530   1.283       .  A
O2174     Ni2176   1.920       .  S
O2174      C2529   1.281   1_554  A
C2177      O2526   1.278       .  A
C2178      O2525   1.280       .  A
C2178      C2757   1.483       .  S
C2179      O2524   1.293       .  A
C2179      C2321   1.545       .  S
C2180      O2523   1.295       .  A
C2180      C2688   1.556       .  S
O2181      C2191   1.280       .  A
O2182     Ni2189   1.911       .  S
O2182      C2192   1.278       .  A
O2183     Ni2189   1.939       .  S
O2184     Ni2189   1.937       .  S
O2185     Ni2190   1.951       .  S
O2185      C2194   1.288       .  A
O2186     Ni2190   1.949       .  S
O2186      C2193   1.288       .  A
O2187      C2192   1.278       .  A
O2188     Ni2190   1.909   1_655  S
O2188      C2191   1.277       .  A
C2191      C2309   1.460       .  S
C2192      C2297   1.457       .  S
C2193      C2384   1.513       .  S
C2194      C2372   1.508       .  S
O2195     Ni2201   1.921       .  S
O2195      C2216   1.269       .  A
O2196     Ni2219   1.889       .  S
O2196      C2205   1.264       .  A
O2197      H2220   0.966       .  S
O2197     Ni2201   1.899       .  S
O2197     Ni2219   1.891       .  S
O2197     Ni2213   1.900       .  S
C2198      O2215   1.271       .  A
C2198      O2207   1.279       .  A
C2198      C2285   1.460       .  S
O2199     Ni2218   1.935       .  S
O2199      C2205   1.274       .  A
O2200     Ni2218   1.906       .  S
O2200      C2202   1.266       .  A
Ni2201     O2204   1.916       .  S
Ni2201     O2206   1.904       .  S
C2202      O2212   1.266       .  A
C2202      C2261   1.464       .  S
O2203     Ni2219   1.907       .  S
O2203      C2209   1.272       .  A
O2204      C2209   1.276       .  A
C2205      C2300   1.467       .  S
O2206      C2208   1.267       .  A
O2207     Ni2218   1.940       .  S
C2208      O2214   1.266       .  A
C2208      C2249   1.466       .  S
C2209      C2273   1.460       .  S
H2210      O2211   0.965       .  S
O2211     Ni2219   1.897       .  S
O2211     Ni2213   1.898       .  S
O2211     Ni2218   1.904       .  S
O2212     Ni2213   1.904       .  S
Ni2213     O2217   1.903       .  S
Ni2213     O2215   1.881       .  S
O2214     Ni2219   1.903       .  S
C2216      O2217   1.263       .  A
C2216      C2312   1.466       .  S
O2221     Ni2581   1.898       .  S
O2221      C2231   1.277       .  A
O2222     Ni2229   1.905   1_554  S
O2222      C2232   1.277       .  A
O2223     Ni2229   1.965       .  S
O2223      C2233   1.291   1_556  A
O2224     Ni2229   1.970       .  S
O2224      C2586   1.292       .  A
O2225     Ni2230   1.962       .  S
O2225      C2234   1.289       .  A
O2226     Ni2230   1.968       .  S
O2226      C2585   1.291       .  A
O2227     Ni2582   1.906       .  S
O2227      C2232   1.280       .  A
O2228     Ni2230   1.919       .  S
O2228      C2231   1.279       .  A
Ni2229     O2573   1.905       .  S
Ni2229    Ni2582   2.379   1_556  S
Ni2230     O2579   1.912       .  S
Ni2230    Ni2581   2.380       .  S
C2231      C2288   1.458       .  S
C2232      C2276   1.467       .  S
C2233      O2578   1.289       .  A
C2233      C2333   1.541       .  S
C2234      O2576   1.295       .  A
C2234      C2324   1.551       .  S
O2235     Ni2243   1.906   1_565  S
O2235      C2245   1.277       .  A
O2236      C2246   1.278       .  A
O2237      C2247   1.293       .  A
O2238     Ni2243   1.986       .  S
O2238      C2248   1.295       .  A
O2239      C2248   1.294   1_565  A
O2240     Ni2244   1.980       .  S
O2240      C2247   1.294       .  A
O2241     Ni2244   1.903       .  S
O2241      C2246   1.277       .  A
O2242      C2245   1.278       .  A
C2245      C2264   1.456       .  S
C2246      C2252   1.459       .  S
C2247      C2360   1.552       .  S
C2248      C2345   1.565       .  S
C2249      C2250   1.402       .  A
C2249      C2254   1.414       .  A
C2250      C2251   1.393       .  A
C2250      H2259   1.084       .  S
C2251      C2252   1.411       .  A
C2251      S2255   1.803       .  S
C2252      C2253   1.399       .  A
C2253      C2254   1.393       .  A
C2253      H2260   1.084       .  S
C2254      S2256   1.803       .  S
S2255      H2258   1.406       .  S
S2256      H2257   1.408       .  S
C2261      C2262   1.403       .  A
C2261      C2266   1.412       .  A
C2262      C2263   1.384       .  A
C2262      H2271   1.084       .  S
C2263      C2264   1.407       .  A
C2263      S2267   1.802       .  S
C2264      C2265   1.402       .  A
C2265      C2266   1.399       .  A
C2265      H2272   1.084       .  S
C2266      S2268   1.803       .  S
S2267      H2270   1.404       .  S
S2268      H2269   1.407       .  S
C2273      C2274   1.403       .  A
C2273      C2278   1.410       .  A
C2274      C2275   1.398       .  A
C2274      H2283   1.084       .  S
C2275      C2276   1.413       .  A
C2275      S2279   1.803       .  S
C2276      C2277   1.401       .  A
C2277      C2278   1.389       .  A
C2277      H2284   1.083       .  S
C2278      S2280   1.805       .  S
S2279      H2282   1.407       .  S
S2280      H2281   1.407       .  S
C2285      C2286   1.396       .  A
C2285      C2290   1.410       .  A
C2286      C2287   1.391       .  A
C2286      H2295   1.084       .  S
C2287      C2288   1.410       .  A
C2287      S2291   1.798       .  S
C2288      C2289   1.399       .  A
C2289      C2290   1.400       .  A
C2289      H2296   1.083       .  S
C2290      S2292   1.805       .  S
S2291      H2294   1.406       .  S
S2292      H2293   1.407       .  S
C2297      C2298   1.399       .  A
C2297      C2302   1.408       .  A
C2298      C2299   1.394       .  A
C2298      H2307   1.085       .  S
C2299      C2300   1.412       .  A
C2299      S2303   1.804       .  S
C2300      C2301   1.404       .  A
C2301      C2302   1.397       .  A
C2301      H2308   1.084       .  S
C2302      S2304   1.805       .  S
S2303      H2306   1.407       .  S
S2304      H2305   1.407       .  S
C2309      C2310   1.401       .  A
C2309      C2314   1.408       .  A
C2310      C2311   1.396       .  A
C2310      H2319   1.084       .  S
C2311      C2312   1.412       .  A
C2311      S2315   1.802       .  S
C2312      C2313   1.403       .  A
C2313      C2314   1.395       .  A
C2313      H2320   1.084       .  S
C2314      S2316   1.802       .  S
S2315      H2318   1.405       .  S
S2316      H2317   1.405       .  S
C2321      C2674   1.412       .  A
C2321      C2326   1.428       .  A
C2322      C2673   1.412   1_554  A
C2322      C2323   1.424       .  A
C2322      H2331   1.083       .  S
C2323      C2676   1.429   1_554  A
C2323      S2327   1.799       .  S
C2324      C2675   1.433       .  A
C2324      C2325   1.416       .  A
C2325      C2326   1.427       .  A
C2325      H2332   1.083       .  S
C2326      S2328   1.801       .  S
S2327      H2330   1.405       .  S
S2328      H2329   1.407       .  S
C2333      C2686   1.413   1_554  A
C2333      C2338   1.426       .  A
C2334      C2685   1.413       .  A
C2334      C2335   1.429       .  A
C2334      H2343   1.082       .  S
C2335      C2688   1.429       .  A
C2335      S2339   1.807       .  S
C2336      C2532   1.538   1_554  S
C2336      C2687   1.423   1_554  A
C2336      C2337   1.414       .  A
C2337      C2338   1.428       .  A
C2337      H2344   1.082       .  S
C2338      S2340   1.806       .  S
S2339      H2342   1.406       .  S
S2340      H2341   1.406       .  S
C2345      C2346   1.419   1_545  A
C2346      C2347   1.432       .  A
C2346      H2355   1.083       .  S
C2347      C2348   1.428   1_565  A
C2347      S2351   1.801       .  S
C2349      C2350   1.433       .  A
C2349      H2356   1.083       .  S
C2350      S2352   1.800       .  S
S2351      H2354   1.406       .  S
S2352      H2353   1.407       .  S
C2357      C2362   1.432       .  A
C2358      C2359   1.430       .  A
C2358      H2367   1.083       .  S
C2359      S2363   1.799       .  S
C2360      C2361   1.415       .  A
C2361      C2362   1.431       .  A
C2361      H2368   1.083       .  S
C2362      S2364   1.799       .  S
S2363      H2366   1.408       .  S
S2364      H2365   1.407       .  S
C2369      C2374   1.418   1_455  A
C2370      C2371   1.413       .  A
C2370      H2379   1.083       .  S
C2371      S2375   1.802       .  S
C2372      C2373   1.409   1_455  A
C2373      C2374   1.411       .  A
C2373      H2380   1.084       .  S
C2374      S2376   1.803       .  S
S2375      H2378   1.406       .  S
S2376      H2377   1.406       .  S
C2381      C2382   1.407   1_455  A
C2382      C2383   1.413       .  A
C2382      H2391   1.084       .  S
C2383      C2384   1.422   1_655  A
C2383      S2387   1.803       .  S
C2385      C2386   1.409       .  A
C2385      H2392   1.084       .  S
C2386      S2388   1.803       .  S
S2387      H2390   1.406       .  S
S2388      H2389   1.402       .  S
C2393      C2750   1.412       .  A
C2394      C2395   1.398       .  A
C2394      H2403   1.084       .  S
C2395      S2399   1.803       .  S
C2396      C2397   1.409       .  A
C2397      C2750   1.404       .  A
C2397      H2756   1.084       .  S
C2398      C2745   1.414       .  A
C2398      C2749   1.404       .  A
C2398      S2400   1.803   1_556  S
S2399      H2402   1.406       .  S
S2400      H2401   1.407       .  S
H2404      C2749   1.084   1_554  S
C2405      C2530   1.480       .  S
C2405      C2762   1.414       .  A
C2406      C2407   1.397       .  A
C2406      H2415   1.084       .  S
C2407      S2411   1.803       .  S
C2408      C2761   1.406   1_655  A
C2409      C2760   1.406   1_455  A
C2409      C2410   1.402       .  A
C2409      H2416   1.084       .  S
C2410      C2757   1.415   1_455  A
C2410      S2412   1.803       .  S
S2411      H2414   1.407       .  S
S2412      H2413   1.407       .  S
C2417      C2418   1.409       .  A
C2417      C2774   1.420       .  A
C2418      C2419   1.395       .  A
C2418      H2427   1.083       .  S
C2419      C2420   1.409       .  A
C2419      S2423   1.805       .  S
C2420      C2773   1.402       .  A
C2421      C2772   1.404       .  A
C2421      C2422   1.400       .  A
C2421      H2428   1.082       .  S
C2422      C2769   1.419       .  A
C2422      S2424   1.812       .  S
S2423      H2426   1.407       .  S
S2424      H2425   1.407       .  S
C2429      C2430   1.405       .  A
C2430      C2431   1.401       .  A
C2430      H2439   1.083       .  S
C2431      C2432   1.416       .  A
C2431      S2435   1.810       .  S
C2433      C2434   1.401       .  A
C2433      H2440   1.082       .  S
C2434      S2436   1.809       .  S
S2435      H2438   1.407       .  S
S2436      H2437   1.407       .  S
C2442      C2443   1.397       .  A
C2442      H2451   1.084       .  S
C2443      S2447   1.803       .  S
C2445      C2446   1.381       .  A
C2445      H2452   1.085   1_455  S
C2446      S2448   1.807   1_455  S
S2447      H2450   1.405       .  S
S2448      H2449   1.407   1_655  S
C2454      C2455   1.382       .  A
C2454      H2463   1.085       .  S
C2455      S2459   1.807       .  S
C2457      C2458   1.391       .  A
C2457      H2464   1.084       .  S
C2458      S2460   1.799       .  S
S2459      H2462   1.404       .  S
S2460      H2461   1.401       .  S
O2465     Ni2471   1.905   1_554  S
O2466     Ni2489   1.903       .  S
O2467      H2490   0.966       .  S
C2468      O2485   1.277       .  A
C2468      C2805   1.456       .  S
O2469     Ni2488   1.900       .  S
O2470     Ni2488   1.909       .  S
O2470      C2472   1.267       .  A
Ni2471     O2474   1.921       .  S
Ni2471     O2476   1.906       .  S
C2472      C2760   1.479       .  S
O2473     Ni2489   1.896   1_465  S
O2473      C2479   1.277       .  A
C2475      C2772   1.474       .  S
O2476      C2478   1.266       .  A
O2477     Ni2488   1.906       .  S
C2478      C2748   1.481       .  S
C2479      C2793   1.455       .  S
H2480      O2481   0.966   1_565  S
O2482     Ni2483   1.931       .  S
Ni2483     O2487   1.917       .  S
Ni2483     O2485   1.901       .  S
O2484     Ni2489   1.929   1_565  S
C2486      C2781   1.473       .  S
O2492     Ni2499   1.900       .  S
O2493     Ni2499   1.947       .  S
O2495     Ni2500   1.946       .  S
O2495      C2504   1.287       .  A
O2496      C2503   1.286       .  A
O2497      C2502   1.274       .  A
O2498     Ni2500   1.898       .  S
O2498      C2501   1.279   1_655  A
C2501      C2796   1.448       .  S
C2503      C2733   1.505       .  S
C2504      C2721   1.509       .  S
O2505      C2515   1.292       .  A
O2506     Ni2513   1.980       .  S
O2506      C2516   1.293   1_565  A
O2507     Ni2513   1.909       .  S
O2507      C2517   1.278       .  A
O2508     Ni2513   1.903       .  S
O2509     Ni2514   1.904   1_556  S
O2510     Ni2514   1.902       .  S
O2512     Ni2514   1.977   1_556  S
C2515      C2700   1.552       .  S
C2517      C2784   1.486       .  S
O2519     Ni2527   1.922       .  S
O2520     Ni2527   1.915       .  S
O2521      C2531   1.292       .  A
O2522     Ni2527   1.963       .  S
O2522      C2532   1.290       .  A
O2524     Ni2528   1.973       .  S
O2525     Ni2528   1.912       .  S
O2526     Ni2528   1.909       .  S
C2531      C2673   1.541       .  S
O2533      C2543   1.278       .  A
O2534     Ni2541   1.908       .  S
O2534      C2544   1.278       .  A
O2535     Ni2541   1.941       .  S
O2536     Ni2541   1.937       .  S
O2537     Ni2542   1.948       .  S
O2537      C2546   1.287       .  A
O2538     Ni2542   1.945       .  S
O2538      C2545   1.287       .  A
O2539      C2544   1.278       .  A
O2540     Ni2542   1.906   1_655  S
O2540      C2543   1.276       .  A
C2543      C2661   1.451       .  S
C2544      C2649   1.454       .  S
C2545      C2736   1.511   1_455  S
C2546      C2724   1.506       .  S
O2547     Ni2553   1.925       .  S
O2547      C2568   1.273       .  A
O2548     Ni2571   1.886       .  S
O2548      C2557   1.262       .  A
O2549      H2572   0.966       .  S
O2549     Ni2553   1.908       .  S
O2549     Ni2571   1.896       .  S
O2549     Ni2565   1.905       .  S
C2550      O2567   1.275       .  A
C2550      O2559   1.279       .  A
C2550      C2637   1.462       .  S
O2551     Ni2570   1.923       .  S
O2551      C2557   1.270       .  A
O2552     Ni2570   1.904       .  S
O2552      C2554   1.265       .  A
Ni2553     O2556   1.929       .  S
Ni2553     O2558   1.899       .  S
C2554      O2564   1.266       .  A
C2554      C2613   1.462       .  S
O2555     Ni2571   1.885       .  S
O2555      C2561   1.268       .  A
O2556      C2561   1.278       .  A
C2557      C2652   1.459       .  S
O2558      C2560   1.266       .  A
O2559     Ni2570   1.919       .  S
C2560      O2566   1.268       .  A
C2560      C2601   1.472       .  S
C2561      C2625   1.471       .  S
H2562      O2563   0.962       .  S
O2563     Ni2571   1.892       .  S
O2563     Ni2565   1.881       .  S
O2563     Ni2570   1.898       .  S
O2564     Ni2565   1.899       .  S
Ni2565     O2569   1.886       .  S
Ni2565     O2567   1.907       .  S
O2566     Ni2571   1.916       .  S
C2568      O2569   1.260       .  A
C2568      C2664   1.463       .  S
O2573      C2583   1.279       .  A
O2574     Ni2581   1.901       .  S
O2574      C2584   1.274       .  A
O2575     Ni2581   1.977       .  S
O2575      C2585   1.294       .  A
O2576     Ni2581   1.979       .  S
O2577     Ni2582   1.963       .  S
O2577      C2586   1.290   1_554  A
O2578     Ni2582   1.962       .  S
O2579      C2584   1.281       .  A
O2580     Ni2582   1.916   1_556  S
O2580      C2583   1.279       .  A
C2583      C2640   1.468       .  S
C2584      C2628   1.455       .  S
C2585      C2685   1.552       .  S
C2586      C2676   1.547       .  S
O2587     Ni2595   1.912   1_565  S
O2587      C2597   1.278       .  A
O2588      C2598   1.281       .  A
O2589      C2599   1.292       .  A
O2590     Ni2595   1.974       .  S
O2590      C2600   1.293   1_545  A
O2591      C2600   1.293       .  A
O2592     Ni2596   1.977       .  S
O2592      C2599   1.294       .  A
O2593     Ni2596   1.899       .  S
O2593      C2598   1.276       .  A
O2594      C2597   1.278       .  A
C2597      C2616   1.464       .  S
C2598      C2604   1.470       .  S
C2599      C2712   1.554       .  S
C2600      C2697   1.550       .  S
C2601      C2602   1.403       .  A
C2601      C2606   1.412       .  A
C2602      C2603   1.395       .  A
C2602      H2611   1.084       .  S
C2603      C2604   1.416       .  A
C2603      S2607   1.803       .  S
C2604      C2605   1.401       .  A
C2605      C2606   1.392       .  A
C2605      H2612   1.084       .  S
C2606      S2608   1.799       .  S
S2607      H2610   1.408       .  S
S2608      H2609   1.407       .  S
C2613      C2614   1.400       .  A
C2613      C2618   1.412       .  A
C2614      C2615   1.384       .  A
C2614      H2623   1.085       .  S
C2615      C2616   1.410       .  A
C2615      S2619   1.803       .  S
C2616      C2617   1.405       .  A
C2617      C2618   1.402       .  A
C2617      H2624   1.084       .  S
C2618      S2620   1.803       .  S
S2619      H2622   1.406       .  S
S2620      H2621   1.406       .  S
C2625      C2626   1.401       .  A
C2625      C2630   1.416       .  A
C2626      C2627   1.390       .  A
C2626      H2635   1.084       .  S
C2627      C2628   1.408       .  A
C2627      S2631   1.799       .  S
C2628      C2629   1.396       .  A
C2629      C2630   1.399       .  A
C2629      H2636   1.083       .  S
C2630      S2632   1.809       .  S
S2631      H2634   1.405       .  S
S2632      H2633   1.407       .  S
C2637      C2638   1.396       .  A
C2637      C2642   1.412       .  A
C2638      C2639   1.386       .  A
C2638      H2647   1.085       .  S
C2639      C2640   1.412       .  A
C2639      S2643   1.798       .  S
C2640      C2641   1.404       .  A
C2641      C2642   1.406       .  A
C2641      H2648   1.083       .  S
C2642      S2644   1.807       .  S
S2643      H2646   1.403       .  S
S2644      H2645   1.407       .  S
C2649      C2650   1.401       .  A
C2649      C2654   1.408       .  A
C2650      C2651   1.394       .  A
C2650      H2659   1.084       .  S
C2651      C2652   1.410       .  A
C2651      S2655   1.804       .  S
C2652      C2653   1.402       .  A
C2653      C2654   1.391       .  A
C2653      H2660   1.084       .  S
C2654      S2656   1.805       .  S
S2655      H2658   1.407       .  S
S2656      H2657   1.407       .  S
C2661      C2662   1.401       .  A
C2661      C2666   1.406       .  A
C2662      C2663   1.395       .  A
C2662      H2671   1.085       .  S
C2663      C2664   1.412       .  A
C2663      S2667   1.801       .  S
C2664      C2665   1.402       .  A
C2665      C2666   1.389       .  A
C2665      H2672   1.084       .  S
C2666      S2668   1.803       .  S
S2667      H2670   1.407       .  S
S2668      H2669   1.404       .  S
C2673      C2678   1.425       .  A
C2674      C2675   1.425       .  A
C2674      H2683   1.083       .  S
C2675      S2679   1.802       .  S
C2676      C2677   1.416       .  A
C2677      C2678   1.427       .  A
C2677      H2684   1.083       .  S
C2678      S2680   1.801       .  S
S2679      H2682   1.404       .  S
S2680      H2681   1.407       .  S
C2685      C2690   1.428       .  A
C2686      C2687   1.424       .  A
C2686      H2695   1.081       .  S
C2687      S2691   1.803       .  S
C2688      C2689   1.419       .  A
C2689      C2690   1.435       .  A
C2689      H2696   1.082       .  S
C2690      S2692   1.807       .  S
S2691      H2694   1.407       .  S
S2692      H2693   1.406       .  S
C2697      C2698   1.415       .  A
C2698      C2699   1.427       .  A
C2698      H2707   1.083       .  S
C2699      C2700   1.429       .  A
C2699      S2703   1.796       .  S
C2701      C2702   1.430       .  A
C2701      H2708   1.083       .  S
C2702      S2704   1.799       .  S
S2703      H2706   1.407       .  S
S2704      H2705   1.408       .  S
C2709      C2714   1.426       .  A
C2710      C2711   1.434       .  A
C2710      H2719   1.083       .  S
C2711      S2715   1.802       .  S
C2712      C2713   1.418       .  A
C2713      C2714   1.429       .  A
C2713      H2720   1.083       .  S
C2714      S2716   1.800       .  S
S2715      H2718   1.407       .  S
S2716      H2717   1.407       .  S
C2721      C2726   1.420       .  A
C2722      C2723   1.413       .  A
C2722      H2731   1.083       .  S
C2723      S2727   1.802       .  S
C2724      C2725   1.408   1_455  A
C2725      C2726   1.412       .  A
C2725      H2732   1.084       .  S
C2726      S2728   1.803       .  S
S2727      H2730   1.406       .  S
S2728      H2729   1.403       .  S
C2733      C2734   1.406       .  A
C2734      C2735   1.413       .  A
C2734      H2743   1.084       .  S
C2735      C2736   1.423       .  A
C2735      S2739   1.803       .  S
C2737      C2738   1.412       .  A
C2737      H2744   1.084       .  S
C2738      S2740   1.803       .  S
S2739      H2742   1.403       .  S
S2740      H2741   1.403       .  S
C2746      C2747   1.399       .  A
C2746      H2755   1.084       .  S
C2747      S2751   1.804       .  S
C2748      C2749   1.405       .  A
C2750      S2752   1.804       .  S
S2751      H2754   1.407       .  S
S2752      H2753   1.406       .  S
C2758      C2759   1.405       .  A
C2758      H2767   1.084       .  S
C2759      S2763   1.803       .  S
C2761      C2762   1.400       .  A
C2761      H2768   1.084   1_554  S
C2762      S2764   1.802   1_554  S
S2763      H2766   1.407       .  S
S2764      H2765   1.407       .  S
C2769      C2770   1.405       .  A
C2770      C2771   1.392       .  A
C2770      H2779   1.083       .  S
C2771      C2772   1.411       .  A
C2771      S2775   1.804       .  S
C2773      C2774   1.396       .  A
C2773      H2780   1.082       .  S
C2774      S2776   1.813       .  S
S2775      H2778   1.407       .  S
S2776      H2777   1.407       .  S
C2781      C2782   1.403       .  A
C2782      C2783   1.399       .  A
C2782      H2791   1.083       .  S
C2783      C2784   1.419       .  A
C2783      S2787   1.811       .  S
C2785      C2786   1.400       .  A
C2785      H2792   1.083       .  S
C2786      S2788   1.807       .  S
S2787      H2790   1.407       .  S
S2788      H2789   1.407       .  S
C2794      C2795   1.393       .  A
C2794      H2803   1.083       .  S
C2795      S2799   1.801       .  S
C2797      C2798   1.383       .  A
C2797      H2804   1.084       .  S
C2798      S2800   1.806       .  S
S2799      H2802   1.405       .  S
S2800      H2801   1.407       .  S
C2806      C2807   1.387       .  A
C2806      H2815   1.085       .  S
C2807      S2811   1.806       .  S
C2809      C2810   1.392       .  A
C2809      H2816   1.084       .  S
C2810      S2812   1.799       .  S
S2811      H2814   1.405       .  S
S2812      H2813   1.406       .  S
