geometry optimzed in LAMMPS
_audit_creation_date              2020-12-01 
_audit_creation_method            'lammps2cif' 
_symmetry_space_group_name_H-M    'P1' 
_symmetry_Int_Tables_number       1 
_symmetry_cell_setting            triclinic 
loop_ 
_symmetry_equiv_pos_as_xyz 
  x,y,z 
_cell_length_a                    22.79599722 
_cell_length_b                    22.800265033208102 
_cell_length_c                    38.81190449289445 
_cell_angle_alpha                 89.95882272309616 
_cell_angle_beta                  89.94745125437825 
_cell_angle_gamma                 89.76650912611471 
loop_ 
_atom_site_label 
_atom_site_type_symbol 
_atom_site_fract_x 
_atom_site_fract_y 
_atom_site_fract_z 
_atom_site_charge 
C1          C  0.24824786  0.34534457  0.40836332    -0.01900
C2          C  0.36138955  0.21262252  0.31358984    -0.01900
C3          C  0.24230084  0.09783910  0.41225874    -0.01900
C4          C  0.10989378  0.21790735  0.32108628    -0.01900
C5          C  0.37674266  0.21135385  0.15725544    -0.01900
C6          C  0.24673844  0.33592196  0.07042764    -0.01900
C7          C  0.13332471  0.20493190  0.16996018    -0.01900
C8          C  0.22125955  0.08808203  0.06960190    -0.01900
O9          O  0.18413702  0.01821397  0.02563344    -0.73800
O10         O  0.19998617  0.40847774  0.45068263    -0.73800
O11         O  0.19632374  0.40066380  0.02475377    -0.73900
O12         O  0.19336589  0.02417826  0.45219358    -0.73900
O13         O  0.28933263  0.03122795  0.45640889    -0.73900
O14         O  0.29301888  0.40184893  0.02574690    -0.73900
O15         O  0.29691204  0.41089855  0.45172927    -0.73800
O16         O  0.28083875  0.02321087  0.03042683    -0.73900
Ni17       Ni  0.19218826  0.46491449  0.48752624     1.25400
Ni18       Ni  0.29527050  0.46803227  0.49013802     1.25400
C19         C  0.22916445  0.03950251  0.04094873     0.88400
C20         C  0.24907644  0.39276112  0.43742668     0.87500
C21         C  0.24480646  0.38162262  0.03848173     0.88300
C22         C  0.24180953  0.04749258  0.44124494     0.88500
O23         O  0.42880867  0.25963682  0.27138769    -0.73800
O24         O  0.05988618  0.25688382  0.20617506    -0.73800
O25         O  0.44293343  0.25619586  0.19929278    -0.73900
O26         O  0.04660014  0.26285494  0.27704036    -0.73900
O27         O  0.04482061  0.16602481  0.28020670    -0.73900
O28         O  0.44052248  0.15904319  0.19971364    -0.73900
O29         O  0.06112490  0.16000004  0.20895454    -0.73800
O30         O  0.42519689  0.16278705  0.27119759    -0.73900
Ni31       Ni  0.49490029  0.26030887  0.23892866     1.25400
Ni32       Ni  0.49211339  0.15671538  0.24029540     1.25400
C33         C  0.40632768  0.21177144  0.28312778     0.88400
C34         C  0.08235552  0.20772184  0.19661794     0.88300
C35         C  0.42510104  0.20802358  0.18566641     0.88300
C36         C  0.06285210  0.21553659  0.29214849     0.88500
C37         C  0.10952192  0.10112501  0.08831372    -0.11700
C38         C  0.16483957  0.07357149  0.09377969     0.05400
C39         C  0.16572110  0.05432888  0.12818772    -0.06900
C40         C  0.14212223  0.09277744  0.15414274    -0.07700
C41         C  0.12094900  0.14838442  0.14554266    -0.02200
C42         C  0.09008414  0.14348990  0.11348798     0.04600
N43         N  0.03998069  0.17792613  0.10587913     0.67100
H44         H  0.09171167  0.10324621  0.06246471     0.16000
H45         H  0.13380696  0.07754794  0.18003949     0.15700
N46         N  0.16249579  0.99244179  0.13418564     0.74800
O47         O  0.03155480  0.19615995  0.07555125    -0.38700
O48         O  0.00479442  0.19179169  0.12954549    -0.38600
O49         O  0.15633578  0.97318643  0.16443752    -0.39300
O50         O  0.15653850  0.46096674  0.10745242    -0.39400
C51         C  0.17418281  0.19138902  0.07043965    -0.11700
C52         C  0.20471826  0.14981363  0.05294104     0.05400
C53         C  0.23278705  0.17734465  0.02534434    -0.06900
C54         C  0.24704477  0.24012838  0.02662872    -0.07700
C55         C  0.23604665  0.27015491  0.05870911    -0.02200
C56         C  0.21070094  0.23202524  0.08297212     0.04600
N57         N  0.23816600  0.21864222  0.11414334     0.67100
H58         H  0.13857808  0.20953438  0.05523585     0.16000
H59         H  0.26613457  0.26297505  0.00526606     0.15700
N60         N  0.24014771  0.14349058  0.49747606     0.74800
O61         O  0.27211676  0.25392182  0.12708490    -0.38700
O62         O  0.23164510  0.16995790  0.12824084    -0.38600
O63         O  0.19368633  0.11703516  0.48933597    -0.39300
O64         O  0.28740178  0.11597859  0.49526696    -0.39400
C65         C  0.20044325  0.35116579  0.13458175    -0.11700
C66         C  0.19277183  0.34543335  0.09825825     0.05400
C67         C  0.13451037  0.32366817  0.09182997    -0.06900
C68         C  0.10780088  0.28353772  0.11609229    -0.07700
C69         C  0.13603479  0.26775769  0.14768311    -0.02200
C70         C  0.16523850  0.31951132  0.15871986     0.04600
N71         N  0.14062608  0.35224303  0.18694530     0.67100
H72         H  0.22089124  0.38986772  0.14420380     0.16000
H73         H  0.06240085  0.27492252  0.11258301     0.15700
N74         N  0.10293425  0.34069477  0.06164637     0.74800
O75         O  0.17334980  0.38255152  0.20602044    -0.38700
O76         O  0.08638174  0.36353660  0.18685792    -0.38600
O77         O  0.08654956  0.30215656  0.04050163    -0.39300
O78         O  0.07832369  0.39034765  0.06107491    -0.39400
C79         C  0.22425996  0.24773703  0.20307253    -0.11700
C80         C  0.19602393  0.19629247  0.19157709     0.05400
C81         C  0.23892668  0.14744172  0.19492423    -0.06900
C82         C  0.29927022  0.15970548  0.19433449    -0.07700
C83         C  0.31960290  0.21218578  0.18154153    -0.02200
C84         C  0.28450179  0.25894499  0.19510906     0.04600
N85         N  0.31015338  0.31096988  0.20848179     0.67100
H86         H  0.19909887  0.27958209  0.21714623     0.16000
H87         H  0.33027464  0.12627752  0.20178007     0.15700
N88         N  0.22901786  0.08673329  0.20263006     0.74800
O89         O  0.28437807  0.35944554  0.20440844    -0.38700
O90         O  0.34762052  0.30647618  0.23210125    -0.38600
O91         O  0.24067865  0.05131272  0.17907586    -0.39300
O92         O  0.24637698  0.06867388  0.23128011    -0.39400
C93         C  0.34888220  0.09801434  0.13983302    -0.11700
C94         C  0.37132956  0.15399874  0.13098913     0.05400
C95         C  0.37371768  0.15602973  0.09428358    -0.06900
C96         C  0.32402617  0.13930432  0.07548347    -0.07700
C97         C  0.28369731  0.09781079  0.08838916    -0.02200
C98         C  0.30641171  0.06871129  0.11820215     0.04600
N99         N  0.29626936  0.00782204  0.12350184     0.67100
H100        H  0.36625893  0.07596832  0.16224447     0.16000
H101        H  0.32615589  0.14711809  0.04838699     0.15700
N102        N  0.42723763  0.13972815  0.07731614     0.74800
O103        O  0.28144765  0.97596965  0.09846530    -0.38700
O104        O  0.32457405  0.48435315  0.14960831    -0.38600
O105        O  0.45435259  0.09459822  0.08762194    -0.39300
O106        O  0.43641007  0.15732681  0.04691123    -0.39400
C107        C  0.39712002  0.27104140  0.09806443    -0.11700
C108        C  0.38567845  0.27052254  0.13405002     0.05400
C109        C  0.36632097  0.32677526  0.14384939    -0.06900
C110        C  0.32494688  0.35555922  0.12189054    -0.07700
C111        C  0.31161544  0.33535520  0.08794495    -0.02200
C112        C  0.35893957  0.30107153  0.07474268     0.04600
N113        N  0.37472208  0.30429703  0.03919139     0.67100
H114        H  0.43448168  0.24767914  0.08805760     0.16000
H115        H  0.30584404  0.39384322  0.13125141     0.15700
N116        N  0.40628232  0.36289412  0.16300484     0.74800
O117        O  0.37738964  0.25789990  0.02166539    -0.38700
O118        O  0.40270889  0.34863673  0.02887680    -0.38600
O119        O  0.45914675  0.36577342  0.15338724    -0.39300
O120        O  0.38756363  0.40052726  0.18414451    -0.39400
C121        C  0.16845604  0.07651318  0.35791149    -0.11700
C122        C  0.17822821  0.09689185  0.39190190     0.05400
C123        C  0.12311802  0.12106247  0.40370957    -0.06900
C124        C  0.09166872  0.15956096  0.38119176    -0.07700
C125        C  0.10620270  0.16075675  0.34587649    -0.02200
C126        C  0.12459649  0.10356769  0.33661295     0.04600
N127        N  0.08243073  0.06545794  0.32039852     0.67100
H128        H  0.18034034  0.03154046  0.35266372     0.16000
H129        H  0.04961003  0.17662424  0.38917594     0.15700
N130        N  0.09344508  0.09885249  0.43365912     0.74800
O131        O  0.02832398  0.07423753  0.32538472    -0.38700
O132        O  0.09828624  0.01659844  0.30818338    -0.38600
O133        O  0.06227742  0.13308683  0.45161649    -0.39300
O134        O  0.08393155  0.04453453  0.43578495    -0.39400
C135        C  0.20687754  0.26254914  0.30256825    -0.11700
C136        C  0.17003427  0.21550841  0.29982038     0.05400
C137        C  0.20174306  0.16812014  0.28284841    -0.06900
C138        C  0.26571167  0.17306542  0.27971673    -0.07700
C139        C  0.29593506  0.21511297  0.30083238    -0.02200
C140        C  0.25591522  0.24718786  0.32052880     0.04600
N141        N  0.24990789  0.23201219  0.35611021     0.67100
H142        H  0.21566411  0.28451186  0.27829517     0.16000
H143        H  0.29103248  0.14165444  0.26548768     0.15700
N144        N  0.17443403  0.11420301  0.27410684     0.74800
O145        O  0.20081983  0.22222578  0.36899064    -0.38700
O146        O  0.29332754  0.21687546  0.37327975    -0.38600
O147        O  0.13441571  0.11260273  0.25186010    -0.39300
O148        O  0.19547934  0.06672242  0.28556434    -0.39400
C149        C  0.29152507  0.07637556  0.35005150    -0.11700
C150        C  0.29672586  0.09029387  0.38532808     0.05400
C151        C  0.35634476  0.10572943  0.39222409    -0.06900
C152        C  0.38623181  0.14372398  0.36829365    -0.07700
C153        C  0.36444261  0.15104256  0.33463828    -0.02200
C154        C  0.33040700  0.10076466  0.32522151     0.04600
N155        N  0.34791061  0.06432109  0.29670226     0.67100
H156        H  0.26924843  0.03664085  0.34329445     0.16000
H157        H  0.42947529  0.15993145  0.37390818     0.15700
N158        N  0.39125322  0.06915211  0.41448083     0.74800
O159        O  0.31252444  0.02717645  0.28468140    -0.38700
O160        O  0.40178681  0.05730815  0.29044659    -0.38600
O161        O  0.38243793  0.51736991  0.41292169    -0.39300
O162        O  0.44190648  0.08526731  0.42345943    -0.39400
C163        C  0.19905408  0.19535409  0.43742892    -0.11700
C164        C  0.25047716  0.16263525  0.42953352     0.05400
C165        C  0.30267688  0.19661868  0.44039915    -0.06900
C166        C  0.29734037  0.25834791  0.44267101    -0.07700
C167        C  0.24712212  0.28694382  0.43060298    -0.02200
C168        C  0.19702991  0.25575434  0.44043351     0.04600
N169        N  0.15221174  0.28057532  0.46216476     0.67100
H170        H  0.16169705  0.17499828  0.44761474     0.16000
H171        H  0.33266523  0.28336726  0.45359141     0.15700
N172        N  0.36105950  0.17561805  0.44814882     0.74800
O173        O  0.10240697  0.25666362  0.46416841    -0.38700
O174        O  0.16613917  0.31707188  0.48492772    -0.38600
O175        O  0.40207977  0.19806672  0.43103524    -0.39300
O176        O  0.37450608  0.16251216  0.47863470    -0.39400
C177        C  0.10167430  0.28701549  0.37976444    -0.11700
C178        C  0.10816429  0.28104629  0.34315727     0.05400
C179        C  0.13228117  0.33521846  0.33056682    -0.06900
C180        C  0.17933386  0.36189956  0.34975185    -0.07700
C181        C  0.18747386  0.34840832  0.38544004    -0.02200
C182        C  0.13236988  0.33106286  0.39864780     0.04600
N183        N  0.09740386  0.37514068  0.41550846     0.67100
H184        H  0.06907194  0.26424605  0.39366681     0.16000
H185        H  0.20332244  0.39582014  0.33720259     0.15700
N186        N  0.11294120  0.36074059  0.29889370     0.74800
O187        O  0.09172431  0.42495444  0.40160326    -0.38700
O188        O  0.06520243  0.36237950  0.44082897    -0.38600
O189        O  0.06331122  0.38544829  0.29825522    -0.39300
O190        O  0.14980459  0.37339800  0.27586426    -0.39400
C191        C  0.34185807  0.32783404  0.32433022    -0.11700
C192        C  0.37023739  0.27446187  0.33479066     0.05400
C193        C  0.39218764  0.28080876  0.36876492    -0.06900
C194        C  0.36082094  0.31682773  0.39287575    -0.07700
C195        C  0.30703764  0.34420747  0.38394415    -0.02200
C196        C  0.31118718  0.36365795  0.34920623     0.04600
N197        N  0.30088627  0.42453617  0.34196495     0.67100
H198        H  0.33606782  0.33713150  0.29722459     0.16000
H199        H  0.38067336  0.32737936  0.41726041     0.15700
N200        N  0.45187343  0.26643788  0.37559137     0.74800
O201        O  0.31861232  0.44684036  0.31408903    -0.38700
O202        O  0.28178302  0.45779155  0.36547071    -0.38600
O203        O  0.47322229  0.27620106  0.40500564    -0.39300
O204        O  0.48576565  0.25607516  0.35066000    -0.39400
C205        C  0.24858045  0.34232227  0.90851730    -0.01900
C206        C  0.36137518  0.20936411  0.81317293    -0.01900
C207        C  0.24242760  0.09462946  0.91184127    -0.01900
C208        C  0.11010279  0.21529532  0.82090274    -0.01900
C209        C  0.37752742  0.21124268  0.65643084    -0.01900
C210        C  0.24772844  0.33883912  0.57036061    -0.01900
C211        C  0.13362496  0.20849641  0.67043853    -0.01900
C212        C  0.22020561  0.09101234  0.56956497    -0.01900
O213        O  0.18247935  0.02112437  0.52574825    -0.73800
O214        O  0.20141266  0.40599325  0.95087167    -0.73800
O215        O  0.19602946  0.40316739  0.52479177    -0.73900
O216        O  0.19464396  0.02101677  0.95208801    -0.73900
O217        O  0.29056220  0.02895814  0.95620739    -0.73900
O218        O  0.29265978  0.40537720  0.52546833    -0.73900
O219        O  0.29821143  0.40727737  0.95203135    -0.73800
O220        O  0.27920505  0.02530701  0.53052645    -0.73900
Ni221      Ni  0.19364301  0.46245512  0.98760065     1.25400
Ni222      Ni  0.29670094  0.46455720  0.99046960     1.25400
C223        C  0.22766446  0.04210749  0.54103060     0.88400
C224        C  0.25023131  0.38968624  0.93764697     0.87500
C225        C  0.24485689  0.38469489  0.53842793     0.88300
C226        C  0.24276258  0.04464540  0.94102759     0.88500
O227        O  0.42862772  0.25747008  0.77147856    -0.73800
O228        O  0.05964957  0.25962161  0.70726631    -0.73800
O229        O  0.44198951  0.25524463  0.69951646    -0.73900
O230        O  0.04597872  0.26190395  0.77814316    -0.73900
O231        O  0.04521598  0.16505534  0.77941136    -0.73900
O232        O  0.44131865  0.15825104  0.69866195    -0.73900
O233        O  0.06046474  0.16264910  0.70838661    -0.73800
O234        O  0.42566710  0.16063990  0.77036101    -0.73900
Ni235      Ni  0.49427869  0.25956867  0.73886973     1.25400
Ni236      Ni  0.49274003  0.15596590  0.73932303     1.25400
C237        C  0.40639101  0.20919940  0.78272477     0.88400
C238        C  0.08224062  0.21081857  0.69702552     0.88300
C239        C  0.42536110  0.20741979  0.68510246     0.88300
C240        C  0.06289441  0.21397074  0.79219642     0.88500
C241        C  0.10845439  0.10624755  0.58833537    -0.11700
C242        C  0.16330249  0.07758787  0.59365871     0.05400
C243        C  0.16368609  0.05780062  0.62794103    -0.06900
C244        C  0.14050500  0.09616486  0.65411051    -0.07700
C245        C  0.12064700  0.15244595  0.64574823    -0.02200
C246        C  0.08993571  0.14876595  0.61367149     0.04600
N247        N  0.04062549  0.18448194  0.60633203     0.67100
H248        H  0.09055771  0.10895669  0.56252330     0.16000
H249        H  0.13247187  0.08079485  0.68000440     0.15700
N250        N  0.16100312  0.99579261  0.63365362     0.74800
O251        O  0.03300833  0.20414862  0.57624301    -0.38700
O252        O  0.00534252  0.19801251  0.63004528    -0.38600
O253        O  0.15321386  0.97599664  0.66366422    -0.39300
O254        O  0.15563321  0.46277714  0.60737983    -0.39400
C255        C  0.17354842  0.19499712  0.56944704    -0.11700
C256        C  0.20491589  0.15297090  0.55272702     0.05400
C257        C  0.23449630  0.17997472  0.52552410    -0.06900
C258        C  0.24926644  0.24263804  0.52686605    -0.07700
C259        C  0.23599574  0.27335336  0.55844787    -0.02200
C260        C  0.20964904  0.23552477  0.58248871     0.04600
N261        N  0.23709900  0.22151606  0.61366012     0.67100
H262        H  0.13882184  0.21319064  0.55355174     0.16000
H263        H  0.26999213  0.26500815  0.50586730     0.15700
N264        N  0.23831400  0.14107011  0.99722871     0.74800
O265        O  0.27404636  0.25478568  0.62557837    -0.38700
O266        O  0.23019707  0.17275575  0.62759178    -0.38600
O267        O  0.19204683  0.11415710  0.98920662    -0.39300
O268        O  0.28583391  0.11406996  0.99493502    -0.39400
C269        C  0.20342748  0.35380640  0.63511117    -0.11700
C270        C  0.19468758  0.34860459  0.59882493     0.05400
C271        C  0.13573888  0.32818167  0.59283050    -0.06900
C272        C  0.10862341  0.28856255  0.61722857    -0.07700
C273        C  0.13720157  0.27170277  0.64849037    -0.02200
C274        C  0.16792874  0.32267178  0.65943342     0.04600
N275        N  0.14496481  0.35538976  0.68816109     0.67100
H276        H  0.22482639  0.39195199  0.64459819     0.16000
H277        H  0.06276225  0.28157385  0.61431864     0.15700
N278        N  0.10376424  0.34602113  0.56295436     0.74800
O279        O  0.17870388  0.38557591  0.70669307    -0.38700
O280        O  0.09065944  0.36615808  0.68941606    -0.38600
O281        O  0.08753299  0.30804817  0.54142387    -0.39300
O282        O  0.07839478  0.39530038  0.56316129    -0.39400
C283        C  0.22596726  0.24949714  0.70309652    -0.11700
C284        C  0.19651285  0.19861175  0.69173627     0.05400
C285        C  0.23884248  0.14913065  0.69443302    -0.06900
C286        C  0.29929399  0.16064662  0.69343607    -0.07700
C287        C  0.32007936  0.21278624  0.68041891    -0.02200
C288        C  0.28607846  0.25999288  0.69437388     0.04600
N289        N  0.31299176  0.31136842  0.70778509     0.67100
H290        H  0.20182756  0.28148760  0.71765396     0.16000
H291        H  0.33001496  0.12698046  0.70090978     0.15700
N292        N  0.22843085  0.08846305  0.70213292     0.74800
O293        O  0.28892536  0.36054845  0.70317236    -0.38700
O294        O  0.34900536  0.30600624  0.73210687    -0.38600
O295        O  0.23852286  0.05317097  0.67831326    -0.39300
O296        O  0.24711365  0.06972357  0.73034670    -0.39400
C297        C  0.34861547  0.09824209  0.63947742    -0.11700
C298        C  0.37217433  0.15363405  0.63052744     0.05400
C299        C  0.37468429  0.15525070  0.59389707    -0.06900
C300        C  0.32437427  0.13995340  0.57526330    -0.07700
C301        C  0.28282611  0.09976479  0.58837751    -0.02200
C302        C  0.30520145  0.07004346  0.61804706     0.04600
N303        N  0.29442781  0.00925678  0.62312975     0.67100
H304        H  0.36601195  0.07572884  0.66173685     0.16000
H305        H  0.32684676  0.14755494  0.54821422     0.15700
N306        N  0.42797802  0.13802156  0.57692292     0.74800
O307        O  0.28132854  0.97746378  0.59773736    -0.38700
O308        O  0.32162067  0.48668259  0.64926507    -0.38600
O309        O  0.45589053  0.09403442  0.58815493    -0.39300
O310        O  0.43675054  0.15393833  0.54615788    -0.39400
C311        C  0.39698433  0.27052150  0.59669376    -0.11700
C312        C  0.38682819  0.27020605  0.63288724     0.05400
C313        C  0.36891212  0.32689873  0.64280020    -0.06900
C314        C  0.32774409  0.35708399  0.62115983    -0.07700
C315        C  0.31323004  0.33743218  0.58724265    -0.02200
C316        C  0.35951938  0.30224897  0.57368646     0.04600
N317        N  0.37573650  0.30676467  0.53822446     0.67100
H318        H  0.43369714  0.24678348  0.58627968     0.16000
H319        H  0.31004286  0.39528207  0.63039578     0.15700
N320        N  0.40704844  0.36069353  0.66468393     0.74800
O321        O  0.38339597  0.26071192  0.52086480    -0.38700
O322        O  0.39945150  0.35357464  0.52796157    -0.38600
O323        O  0.46178375  0.35220711  0.66318484    -0.39300
O324        O  0.38865165  0.40631569  0.67956442    -0.39400
C325        C  0.16856578  0.07331408  0.85740490    -0.11700
C326        C  0.17821977  0.09333321  0.89150264     0.05400
C327        C  0.12300686  0.11733650  0.90323512    -0.06900
C328        C  0.09161489  0.15599777  0.88075144    -0.07700
C329        C  0.10623710  0.15768197  0.84544082    -0.02200
C330        C  0.12487715  0.10057767  0.83603312     0.04600
N331        N  0.08349175  0.06263898  0.81888914     0.67100
H332        H  0.18044156  0.02838459  0.85207044     0.16000
H333        H  0.04950859  0.17286508  0.88875173     0.15700
N334        N  0.09338367  0.09523343  0.93323836     0.74800
O335        O  0.02927992  0.07398846  0.82059372    -0.38700
O336        O  0.09889515  0.01203932  0.80914346    -0.38600
O337        O  0.06113991  0.12920093  0.95071329    -0.39300
O338        O  0.08531310  0.04075451  0.93594334    -0.39400
C339        C  0.20700278  0.25984561  0.80246154    -0.11700
C340        C  0.17001765  0.21296243  0.79952209     0.05400
C341        C  0.20142028  0.16565281  0.78235383    -0.06900
C342        C  0.26547398  0.17043654  0.77927381    -0.07700
C343        C  0.29585679  0.21211600  0.80051289    -0.02200
C344        C  0.25597681  0.24410350  0.82033093     0.04600
N345        N  0.25005073  0.22873937  0.85587994     0.67100
H346        H  0.21574874  0.28217698  0.77831027     0.16000
H347        H  0.29100535  0.13956614  0.76487556     0.15700
N348        N  0.17344352  0.11230790  0.77298366     0.74800
O349        O  0.20097264  0.21901795  0.86877886    -0.38700
O350        O  0.29347648  0.21326426  0.87294518    -0.38600
O351        O  0.13373703  0.11193611  0.75051359    -0.39300
O352        O  0.19380336  0.06416463  0.78390062    -0.39400
C353        C  0.29131335  0.07304947  0.84954365    -0.11700
C354        C  0.29663763  0.08712406  0.88478207     0.05400
C355        C  0.35631504  0.10212216  0.89158456    -0.06900
C356        C  0.38634081  0.13986228  0.86760153    -0.07700
C357        C  0.36444826  0.14748087  0.83396261    -0.02200
C358        C  0.32991827  0.09745465  0.82457810     0.04600
N359        N  0.34598705  0.06151766  0.79552813     0.67100
H360        H  0.26913954  0.03322128  0.84289039     0.16000
H361        H  0.42991531  0.15515669  0.87311476     0.15700
N362        N  0.39107347  0.06506698  0.91363736     0.74800
O363        O  0.39942339  0.05537603  0.78786519    -0.38700
O364        O  0.31022406  0.02419464  0.78408073    -0.38600
O365        O  0.38485175  0.51320714  0.91278867    -0.39300
O366        O  0.44164095  0.08100871  0.92286895    -0.39400
C367        C  0.19892814  0.19216292  0.93694530    -0.11700
C368        C  0.25037644  0.15941098  0.92908452     0.05400
C369        C  0.30257697  0.19311403  0.94009801    -0.06900
C370        C  0.29745519  0.25485051  0.94256140    -0.07700
C371        C  0.24725144  0.28377505  0.93068308    -0.02200
C372        C  0.19707849  0.25253898  0.94043383     0.04600
N373        N  0.15208588  0.27717464  0.96221501     0.67100
H374        H  0.16142626  0.17172694  0.94684273     0.16000
H375        H  0.33289782  0.27963095  0.95353568     0.15700
N376        N  0.36077421  0.17165781  0.94783882     0.74800
O377        O  0.10287046  0.25228966  0.96495454    -0.38700
O378        O  0.16517341  0.31571740  0.98396030    -0.38600
O379        O  0.40190757  0.19359315  0.93060755    -0.39300
O380        O  0.37418267  0.15870843  0.97836226    -0.39400
C381        C  0.10204110  0.28362232  0.87955976    -0.11700
C382        C  0.10875651  0.27822899  0.84306204     0.05400
C383        C  0.13278694  0.33267781  0.83064149    -0.06900
C384        C  0.17945114  0.35946355  0.85011846    -0.07700
C385        C  0.18744757  0.34594261  0.88578929    -0.02200
C386        C  0.13236899  0.32744789  0.89868524     0.04600
N387        N  0.09784522  0.36772298  0.91892300     0.67100
H388        H  0.06979565  0.26026951  0.89328006     0.16000
H389        H  0.20330444  0.39369012  0.83779251     0.15700
N390        N  0.11479585  0.35767425  0.79850451     0.74800
O391        O  0.10307326  0.42214852  0.91377326    -0.38700
O392        O  0.05362642  0.34991715  0.93540502    -0.38600
O393        O  0.06334730  0.37792183  0.79610394    -0.39300
O394        O  0.15287534  0.37444232  0.77710865    -0.39400
C395        C  0.34192713  0.32455863  0.82419770    -0.11700
C396        C  0.37020596  0.27105054  0.83456296     0.05400
C397        C  0.39214718  0.27716700  0.86852864    -0.06900
C398        C  0.36098312  0.31331269  0.89269274    -0.07700
C399        C  0.30718202  0.34081263  0.88386506    -0.02200
C400        C  0.31130110  0.36034981  0.84911862     0.04600
N401        N  0.30110931  0.42126503  0.84189881     0.67100
H402        H  0.33610231  0.33396973  0.79711284     0.16000
H403        H  0.38081790  0.32347576  0.91713276     0.15700
N404        N  0.45132453  0.26116971  0.87564161     0.74800
O405        O  0.31820671  0.44344386  0.81384720    -0.38700
O406        O  0.28251803  0.45462367  0.86549442    -0.38600
O407        O  0.47279947  0.27135310  0.90496284    -0.39300
O408        O  0.48481549  0.24718831  0.85111214    -0.39400
C409        C  0.25074284  0.84847545  0.40901672    -0.01900
C410        C  0.36625264  0.72125249  0.31269796    -0.01900
C411        C  0.24672952  0.60035110  0.41032858    -0.01900
C412        C  0.11415156  0.72508239  0.32040425    -0.01900
C413        C  0.38426638  0.71051238  0.15546623    -0.01900
C414        C  0.25114602  0.83582890  0.07039615    -0.01900
C415        C  0.13921658  0.70403474  0.16978618    -0.01900
C416        C  0.22897273  0.58816929  0.06879825    -0.01900
O417        O  0.18932604  0.52051363  0.02447010    -0.73800
O418        O  0.19965973  0.90736230  0.45216258    -0.73800
O419        O  0.19773353  0.89864176  0.02570272    -0.73900
O420        O  0.19758741  0.52599547  0.45038552    -0.73900
O421        O  0.29366569  0.53075151  0.45424489    -0.73900
O422        O  0.29425566  0.90493946  0.02706963    -0.73900
O423        O  0.29614159  0.91303469  0.45375918    -0.73800
O424        O  0.28614780  0.52110885  0.02909856    -0.73900
Ni425      Ni  0.18946998  0.96308180  0.48898982     1.25400
Ni426      Ni  0.29240797  0.96949176  0.49209452     1.25400
C427        C  0.23528021  0.53945037  0.03992124     0.88400
C428        C  0.24933901  0.89402986  0.43891591     0.87500
C429        C  0.24710966  0.88202061  0.03930392     0.88300
C430        C  0.24635751  0.54853069  0.43916281     0.88500
O431        O  0.43458505  0.76515950  0.26968740    -0.73800
O432        O  0.06561192  0.75671904  0.20521671    -0.73800
O433        O  0.44908372  0.75681041  0.19742722    -0.73900
O434        O  0.05132095  0.76613120  0.27550977    -0.73900
O435        O  0.05077560  0.66963531  0.28021868    -0.73900
O436        O  0.44591190  0.66001424  0.20009338    -0.73900
O437        O  0.06619090  0.65996673  0.20884248    -0.73800
O438        O  0.43085506  0.66835270  0.27175005    -0.73900
Ni439      Ni  0.50040709  0.76423960  0.23695196     1.25400
Ni440      Ni  0.49769405  0.66088877  0.24073207     1.25400
C441        C  0.41186787  0.71826299  0.28248407     0.88400
C442        C  0.08801602  0.70728565  0.19626789     0.88300
C443        C  0.43130409  0.70808209  0.18470966     0.88300
C444        C  0.06773433  0.71998216  0.29148573     0.88500
C445        C  0.11697241  0.60152093  0.08779091    -0.11700
C446        C  0.17261885  0.57466368  0.09332332     0.05400
C447        C  0.17338040  0.55481005  0.12762798    -0.06900
C448        C  0.14872488  0.59232776  0.15370569    -0.07700
C449        C  0.12647762  0.64764785  0.14542419    -0.02200
C450        C  0.09700370  0.64358574  0.11298846     0.04600
N451        N  0.04688102  0.67795233  0.10538385     0.67100
H452        H  0.09926155  0.60359869  0.06191403     0.16000
H453        H  0.14004444  0.57651849  0.17944214     0.15700
N454        N  0.16885877  0.49296531  0.13289910     0.74800
O455        O  0.03908550  0.69730352  0.07524185    -0.38700
O456        O  0.01111667  0.69080073  0.12897326    -0.38600
O457        O  0.15980387  0.47329300  0.16279754    -0.39300
O458        O  0.15044398  0.95908676  0.10930308    -0.39400
C459        C  0.17932490  0.69095868  0.06757018    -0.11700
C460        C  0.21315878  0.64970762  0.05173589     0.05400
C461        C  0.24353186  0.67710869  0.02492563    -0.06900
C462        C  0.25619060  0.74023229  0.02637039    -0.07700
C463        C  0.24017228  0.77071692  0.05768019    -0.02200
C464        C  0.21366432  0.73234357  0.08134111     0.04600
N465        N  0.24170136  0.71795563  0.11235524     0.67100
H466        H  0.14501572  0.70796998  0.05095488     0.16000
H467        H  0.27689588  0.76312858  0.00551281     0.15700
N468        N  0.24855081  0.64375716  0.49655279     0.74800
O469        O  0.28711111  0.74357608  0.11954705    -0.38700
O470        O  0.23358995  0.66945357  0.12625132    -0.38600
O471        O  0.20238148  0.61716202  0.48815011    -0.39300
O472        O  0.29595227  0.61634828  0.49416047    -0.39400
C473        C  0.20659418  0.85062732  0.13483315    -0.11700
C474        C  0.19794814  0.84503519  0.09865315     0.05400
C475        C  0.13928800  0.82375175  0.09255347    -0.06900
C476        C  0.11309558  0.78354237  0.11683789    -0.07700
C477        C  0.14239444  0.76707357  0.14786534    -0.02200
C478        C  0.17183961  0.81873367  0.15906737     0.04600
N479        N  0.14781010  0.85099963  0.18771425     0.67100
H480        H  0.22582678  0.89056399  0.14410624     0.16000
H481        H  0.06750175  0.77514588  0.11385230     0.15700
N482        N  0.10723073  0.84025038  0.06242891     0.74800
O483        O  0.18091313  0.88035838  0.20709104    -0.38700
O484        O  0.09371115  0.86293772  0.18786580    -0.38600
O485        O  0.09241803  0.80151707  0.04100766    -0.39300
O486        O  0.08020852  0.88864101  0.06235148    -0.39400
C487        C  0.23119078  0.74565947  0.20184451    -0.11700
C488        C  0.20206007  0.69458445  0.19095847     0.05400
C489        C  0.24475370  0.64552315  0.19293078    -0.06900
C490        C  0.30504236  0.65756159  0.19110187    -0.07700
C491        C  0.32540276  0.71031896  0.17840610    -0.02200
C492        C  0.29054180  0.75704021  0.19211783     0.04600
N493        N  0.31689381  0.80855716  0.20543836     0.67100
H494        H  0.20716482  0.77723571  0.21680397     0.16000
H495        H  0.33600937  0.62436335  0.19890818     0.15700
N496        N  0.23481847  0.58560084  0.20273205     0.74800
O497        O  0.29083971  0.85717612  0.20307448    -0.38700
O498        O  0.35750160  0.80318178  0.22699480    -0.38600
O499        O  0.24633599  0.54746604  0.18051158    -0.39300
O500        O  0.25121989  0.57083289  0.23220842    -0.39400
C501        C  0.35870305  0.59729922  0.13826143    -0.11700
C502        C  0.38120917  0.65304844  0.12929754     0.05400
C503        C  0.38280311  0.65521763  0.09260771    -0.06900
C504        C  0.33297749  0.63786408  0.07409523    -0.07700
C505        C  0.29168156  0.59786907  0.08759845    -0.02200
C506        C  0.31442344  0.56901674  0.11750415     0.04600
N507        N  0.30401790  0.50830489  0.12288476     0.67100
H508        H  0.37691702  0.57510091  0.16041971     0.16000
H509        H  0.33577311  0.64398903  0.04694549     0.15700
N510        N  0.43632150  0.64080695  0.07506824     0.74800
O511        O  0.28950837  0.47675414  0.09764645    -0.38700
O512        O  0.31525911  0.98408214  0.15066739    -0.38600
O513        O  0.46412353  0.59538146  0.08423013    -0.39300
O514        O  0.44469454  0.66032630  0.04498868    -0.39400
C515        C  0.40327078  0.77156818  0.09615885    -0.11700
C516        C  0.39333699  0.77027709  0.13240201     0.05400
C517        C  0.37290047  0.82600781  0.14251537    -0.06900
C518        C  0.32998235  0.85412892  0.12136017    -0.07700
C519        C  0.31665305  0.83558745  0.08723465    -0.02200
C520        C  0.36443323  0.80242339  0.07335085     0.04600
N521        N  0.38000728  0.80773410  0.03783475     0.67100
H522        H  0.44072979  0.74905841  0.08560250     0.16000
H523        H  0.31140428  0.89332893  0.13069826     0.15700
N524        N  0.41015585  0.86175669  0.16380151     0.74800
O525        O  0.38743468  0.76207506  0.02007409    -0.38700
O526        O  0.40355092  0.85478116  0.02782099    -0.38600
O527        O  0.46516659  0.85646610  0.16131190    -0.39300
O528        O  0.38982850  0.90596760  0.17932207    -0.39400
C529        C  0.17018413  0.58086490  0.35671079    -0.11700
C530        C  0.18196534  0.60026016  0.39065672     0.05400
C531        C  0.12823830  0.62620614  0.40299139    -0.06900
C532        C  0.09950309  0.66837020  0.38153644    -0.07700
C533        C  0.11204870  0.66872265  0.34583460    -0.02200
C534        C  0.12726121  0.61080218  0.33595543     0.04600
N535        N  0.08253255  0.57551483  0.32009784     0.67100
H536        H  0.18129666  0.53591066  0.35061563     0.16000
H537        H  0.06109934  0.69062417  0.39106310     0.15700
N538        N  0.09690433  0.60226805  0.43189893     0.74800
O539        O  0.09607806  0.53160637  0.30195681    -0.38700
O540        O  0.02982246  0.58153913  0.32964638    -0.38600
O541        O  0.06471023  0.63527743  0.45001679    -0.39300
O542        O  0.08847187  0.54766535  0.43323604    -0.39400
C543        C  0.21076372  0.77142560  0.30218396    -0.11700
C544        C  0.17450591  0.72390381  0.29936949     0.05400
C545        C  0.20659786  0.67729741  0.28200699    -0.06900
C546        C  0.27026839  0.68352141  0.27818053    -0.07700
C547        C  0.30066445  0.72506462  0.29967644    -0.02200
C548        C  0.26036234  0.75632098  0.31981978     0.04600
N549        N  0.25404905  0.73968393  0.35521106     0.67100
H550        H  0.21805816  0.79449650  0.27808874     0.16000
H551        H  0.29509488  0.65308274  0.26310369     0.15700
N552        N  0.18040109  0.62255980  0.27403943     0.74800
O553        O  0.20466524  0.73286341  0.36846971    -0.38700
O554        O  0.29677291  0.72157841  0.37195720    -0.38600
O555        O  0.14177898  0.61905985  0.25107103    -0.39300
O556        O  0.20188319  0.57607031  0.28653093    -0.39400
C557        C  0.29386183  0.58726234  0.34606542    -0.11700
C558        C  0.30031137  0.59513437  0.38229216     0.05400
C559        C  0.36039789  0.60886139  0.38950725    -0.06900
C560        C  0.39105496  0.64846533  0.36657457    -0.07700
C561        C  0.36831639  0.65961916  0.33341891    -0.02200
C562        C  0.33526482  0.61071411  0.32240502     0.04600
N563        N  0.36405034  0.56983546  0.29991383     0.67100
H564        H  0.26873510  0.55127833  0.33669883     0.16000
H565        H  0.43486626  0.66335334  0.37231778     0.15700
N566        N  0.39415143  0.57140260  0.41190124     0.74800
O567        O  0.35040629  0.56608366  0.26857156    -0.38700
O568        O  0.40759504  0.54102925  0.31087908    -0.38600
O569        O  0.37909947  0.01539584  0.41667021    -0.39300
O570        O  0.44394290  0.58760118  0.42234644    -0.39400
C571        C  0.20369948  0.69687817  0.43737044    -0.11700
C572        C  0.25502960  0.66476652  0.42835999     0.05400
C573        C  0.30723145  0.69931825  0.43853059    -0.06900
C574        C  0.30114007  0.76088783  0.44115136    -0.07700
C575        C  0.25023835  0.78924956  0.43007636    -0.02200
C576        C  0.20041906  0.75732218  0.43968906     0.04600
N577        N  0.15369854  0.78164991  0.46014532     0.67100
H578        H  0.16703138  0.67609250  0.44840243     0.16000
H579        H  0.33645571  0.78619171  0.45157608     0.15700
N580        N  0.36611177  0.67908931  0.44580286     0.74800
O581        O  0.10335840  0.75868942  0.45916391    -0.38700
O582        O  0.16599883  0.81392483  0.48533937    -0.38600
O583        O  0.40661377  0.70198500  0.42840467    -0.39300
O584        O  0.38022714  0.66692342  0.47631174    -0.39400
C585        C  0.09884518  0.79484195  0.37764864    -0.11700
C586        C  0.10940955  0.78885363  0.34158011     0.05400
C587        C  0.13565987  0.84300462  0.33003043    -0.06900
C588        C  0.18178545  0.86850094  0.35070186    -0.07700
C589        C  0.18950853  0.85137891  0.38577938    -0.02200
C590        C  0.13276233  0.83508294  0.39813118     0.04600
N591        N  0.10023058  0.87873433  0.41695820     0.67100
H592        H  0.05590863  0.78267588  0.38690701     0.16000
H593        H  0.20417563  0.90593203  0.34056044     0.15700
N594        N  0.12003901  0.86907848  0.29763322     0.74800
O595        O  0.10119161  0.93128438  0.40664062    -0.38700
O596        O  0.06239038  0.86412746  0.43902809    -0.38600
O597        O  0.06650438  0.87669964  0.29062307    -0.39300
O598        O  0.15782361  0.89735270  0.28068020    -0.39400
C599        C  0.39478859  0.78418634  0.36912266    -0.11700
C600        C  0.37586835  0.78215937  0.33455160     0.05400
C601        C  0.34742679  0.83682436  0.32541375    -0.06900
C602        C  0.31311027  0.86780872  0.35052047    -0.07700
C603        C  0.31151128  0.85034531  0.38537634    -0.02200
C604        C  0.36735155  0.82319624  0.39353457     0.04600
N605        N  0.40301673  0.84570758  0.42105871     0.67100
H606        H  0.43367799  0.75998777  0.37612631     0.16000
H607        H  0.29294937  0.90855089  0.34315917     0.15700
N608        N  0.34892705  0.85925616  0.29108837     0.74800
O609        O  0.40158194  0.89968005  0.42792247    -0.38700
O610        O  0.44457856  0.81528743  0.43312868    -0.38600
O611        O  0.30196987  0.87751301  0.27750687    -0.39300
O612        O  0.39712438  0.87788554  0.27951045    -0.39400
C613        C  0.25419044  0.84485352  0.90957814    -0.01900
C614        C  0.36902239  0.71802228  0.81301433    -0.01900
C615        C  0.24975742  0.59674552  0.91023171    -0.01900
C616        C  0.11692878  0.72171408  0.82043113    -0.01900
C617        C  0.38372183  0.71229929  0.65525616    -0.01900
C618        C  0.24928185  0.83827950  0.57053372    -0.01900
C619        C  0.13937253  0.70572341  0.66996014    -0.01900
C620        C  0.22767024  0.59069047  0.56854448    -0.01900
O621        O  0.18783416  0.52296155  0.52438337    -0.73800
O622        O  0.20264886  0.90440656  0.95219646    -0.73800
O623        O  0.19544034  0.90116517  0.52575346    -0.73900
O624        O  0.20003759  0.52335626  0.95049830    -0.73900
O625        O  0.29612061  0.52719071  0.95447304    -0.73900
O626        O  0.29194985  0.90703520  0.52695303    -0.73900
O627        O  0.29907039  0.91053713  0.95396441    -0.73800
O628        O  0.28469954  0.52425871  0.52873594    -0.73900
Ni629      Ni  0.19157186  0.96017933  0.98891610     1.25400
Ni630      Ni  0.29446513  0.96733887  0.99209006     1.25400
C631        C  0.23382836  0.54218103  0.53967787     0.88400
C632        C  0.25247265  0.89092211  0.93920226     0.87500
C633        C  0.24485860  0.88435940  0.53931940     0.88300
C634        C  0.24902868  0.54528509  0.93926511     0.88500
O635        O  0.43594856  0.76311516  0.76992035    -0.73800
O636        O  0.06634891  0.75742763  0.70633195    -0.73800
O637        O  0.44901183  0.75745501  0.69749896    -0.73900
O638        O  0.05228345  0.76421924  0.77678347    -0.73900
O639        O  0.05321561  0.66755411  0.77970163    -0.73900
O640        O  0.44649917  0.66060476  0.69895000    -0.73900
O641        O  0.06700670  0.66051004  0.70849445    -0.73800
O642        O  0.43228037  0.66625365  0.77088454    -0.73900
Ni643      Ni  0.50100868  0.76368365  0.73683388     1.25400
Ni644      Ni  0.49869057  0.66023266  0.73947821     1.25400
C645        C  0.41375585  0.71579386  0.78242914     0.88400
C646        C  0.08862505  0.70831206  0.69659487     0.88300
C647        C  0.43135244  0.70913325  0.68422444     0.88300
C648        C  0.06991490  0.71748225  0.79171204     0.88500
C649        C  0.11597929  0.60345847  0.58793599    -0.11700
C650        C  0.17165600  0.57663106  0.59318032     0.05400
C651        C  0.17280958  0.55661592  0.62744697    -0.06900
C652        C  0.14862203  0.59410088  0.65368296    -0.07700
C653        C  0.12651812  0.64948564  0.64551596    -0.02200
C654        C  0.09641055  0.64537483  0.61329301     0.04600
N655        N  0.04623742  0.67969756  0.60596158     0.67100
H656        H  0.09791534  0.60566224  0.56214671     0.16000
H657        H  0.14039407  0.57828569  0.67946930     0.15700
N658        N  0.16854876  0.49473711  0.63271986     0.74800
O659        O  0.03853192  0.69972024  0.57597508    -0.38700
O660        O  0.01044365  0.69195424  0.62963216    -0.38600
O661        O  0.16054192  0.47488521  0.66267777    -0.39300
O662        O  0.15168408  0.96246937  0.60835778    -0.39400
C663        C  0.17795788  0.69335178  0.56778101    -0.11700
C664        C  0.21154669  0.65225436  0.55165369     0.05400
C665        C  0.24177010  0.67988217  0.52485137    -0.06900
C666        C  0.25435121  0.74299083  0.52641184    -0.07700
C667        C  0.23866102  0.77313962  0.55788339    -0.02200
C668        C  0.21252480  0.73454497  0.58155037     0.04600
N669        N  0.24063725  0.72007386  0.61254300     0.67100
H670        H  0.14357525  0.71074366  0.55132226     0.16000
H671        H  0.27495841  0.76605252  0.50557045     0.15700
N672        N  0.24979876  0.64092806  0.99660100     0.74800
O673        O  0.28374981  0.74827093  0.62119071    -0.38700
O674        O  0.23366721  0.67116333  0.62617865    -0.38600
O675        O  0.20340598  0.61465050  0.98823992    -0.39300
O676        O  0.29694889  0.61314008  0.99418352    -0.39400
C677        C  0.20517383  0.85317550  0.63498579    -0.11700
C678        C  0.19619642  0.84730464  0.59885125     0.05400
C679        C  0.13764490  0.82562508  0.59294616    -0.06900
C680        C  0.11198434  0.78528594  0.61736340    -0.07700
C681        C  0.14179889  0.76897277  0.64824234    -0.02200
C682        C  0.17115856  0.82074966  0.65936128     0.04600
N683        N  0.14764874  0.85276851  0.68823476     0.67100
H684        H  0.22348369  0.89302274  0.64407061     0.16000
H685        H  0.06629690  0.77701628  0.61480384     0.15700
N686        N  0.10503480  0.84227778  0.56302306     0.74800
O687        O  0.18101847  0.88299473  0.70697542    -0.38700
O688        O  0.09341019  0.86398807  0.68897078    -0.38600
O689        O  0.08538753  0.80330648  0.54314568    -0.39300
O690        O  0.08297355  0.89306099  0.56170394    -0.39400
C691        C  0.23127291  0.74744837  0.70189648    -0.11700
C692        C  0.20235025  0.69628423  0.69096820     0.05400
C693        C  0.24520680  0.64725913  0.69304856    -0.06900
C694        C  0.30542922  0.65948244  0.69136277    -0.07700
C695        C  0.32545585  0.71213891  0.67856930    -0.02200
C696        C  0.29072365  0.75877877  0.69243418     0.04600
N697        N  0.31739134  0.80954334  0.70645478     0.67100
H698        H  0.20715196  0.77894190  0.71687696     0.16000
H699        H  0.33662773  0.62636769  0.69899004     0.15700
N700        N  0.23566372  0.58714592  0.70259977     0.74800
O701        O  0.29131628  0.85827163  0.70510639    -0.38700
O702        O  0.35797120  0.80283417  0.72790806    -0.38600
O703        O  0.24561859  0.54965112  0.67983253    -0.39300
O704        O  0.25468688  0.57148639  0.73138344    -0.39400
C705        C  0.35729290  0.59921226  0.63785340    -0.11700
C706        C  0.37998034  0.65499890  0.62903784     0.05400
C707        C  0.38179334  0.65728556  0.59240647    -0.06900
C708        C  0.33168456  0.64080043  0.57388366    -0.07700
C709        C  0.29058617  0.60021828  0.58708955    -0.02200
C710        C  0.31324469  0.57106545  0.61686509     0.04600
N711        N  0.30237953  0.51044380  0.62218747     0.67100
H712        H  0.37533438  0.57674938  0.65996151     0.16000
H713        H  0.33428140  0.64796175  0.54682918     0.15700
N714        N  0.43521312  0.64185981  0.57501896     0.74800
O715        O  0.28838469  0.47870761  0.59692721    -0.38700
O716        O  0.31225835  0.98552610  0.65055636    -0.38600
O717        O  0.46330635  0.59715445  0.58506228    -0.39300
O718        O  0.44355431  0.65984164  0.54460709    -0.39400
C719        C  0.40142248  0.77361215  0.59591970    -0.11700
C720        C  0.39204241  0.77227403  0.63223272     0.05400
C721        C  0.37163783  0.82795170  0.64250379    -0.06900
C722        C  0.32850821  0.85680293  0.62151352    -0.07700
C723        C  0.31501198  0.83803793  0.58726141    -0.02200
C724        C  0.36253979  0.80482181  0.57329022     0.04600
N725        N  0.37796694  0.81028387  0.53775263     0.67100
H726        H  0.43845988  0.75095700  0.58515219     0.16000
H727        H  0.31061122  0.89285380  0.63069645     0.15700
N728        N  0.40816183  0.86332407  0.66449585     0.74800
O729        O  0.38703453  0.76470474  0.52018481    -0.38700
O730        O  0.39988261  0.85800673  0.52755923    -0.38600
O731        O  0.46320087  0.85694557  0.66326552    -0.39300
O732        O  0.38782437  0.90844060  0.67904750    -0.39400
C733        C  0.17348628  0.57741072  0.85640969    -0.11700
C734        C  0.18502327  0.59666555  0.89043373     0.05400
C735        C  0.13102754  0.62223251  0.90271979    -0.06900
C736        C  0.10204496  0.66421169  0.88126164    -0.07700
C737        C  0.11478014  0.66497272  0.84560244    -0.02200
C738        C  0.13048054  0.60721356  0.83562389     0.04600
N739        N  0.08636048  0.57179168  0.81922641     0.67100
H740        H  0.18479651  0.53253029  0.85027436     0.16000
H741        H  0.06335363  0.68604153  0.89072830     0.15700
N742        N  0.09999056  0.59867896  0.93185510     0.74800
O743        O  0.10053644  0.52647430  0.80248482    -0.38700
O744        O  0.03311629  0.57895667  0.82738819    -0.38600
O745        O  0.06758988  0.63186401  0.94973286    -0.39300
O746        O  0.09164626  0.54410658  0.93349573    -0.39400
C747        C  0.21370024  0.76806407  0.80232997    -0.11700
C748        C  0.17728789  0.72062825  0.79935475     0.05400
C749        C  0.20943686  0.67396323  0.78211616    -0.06900
C750        C  0.27320499  0.68001079  0.77857296    -0.07700
C751        C  0.30345113  0.72161055  0.80008705    -0.02200
C752        C  0.26321785  0.75299636  0.82009171     0.04600
N753        N  0.25692393  0.73635012  0.85546933     0.67100
H754        H  0.22132300  0.79112871  0.77826617     0.16000
H755        H  0.29835431  0.64957815  0.76367797     0.15700
N756        N  0.18288087  0.61957928  0.77362217     0.74800
O757        O  0.20755459  0.72866190  0.86855644    -0.38700
O758        O  0.29972895  0.71824623  0.87216020    -0.38600
O759        O  0.14366278  0.61708792  0.75092280    -0.39300
O760        O  0.20424691  0.57255553  0.78551749    -0.39400
C761        C  0.29717163  0.58379436  0.84595215    -0.11700
C762        C  0.30342229  0.59139721  0.88223322     0.05400
C763        C  0.36345865  0.60503390  0.88955774    -0.06900
C764        C  0.39415223  0.64495770  0.86680796    -0.07700
C765        C  0.37170946  0.65617612  0.83355891    -0.02200
C766        C  0.33882334  0.60724154  0.82244932     0.04600
N767        N  0.36773048  0.56643064  0.79997549     0.67100
H768        H  0.27196060  0.54806673  0.83635030     0.16000
H769        H  0.43795950  0.65973395  0.87265416     0.15700
N770        N  0.39710696  0.56712181  0.91175108     0.74800
O771        O  0.35239483  0.56077028  0.76900598    -0.38700
O772        O  0.41107184  0.53735216  0.81097328    -0.38600
O773        O  0.37890896  0.01125173  0.91537956    -0.39300
O774        O  0.44707195  0.58284802  0.92214825    -0.39400
C775        C  0.20700096  0.69339959  0.93699623    -0.11700
C776        C  0.25827278  0.66107161  0.92824200     0.05400
C777        C  0.31063064  0.69518538  0.93869314    -0.06900
C778        C  0.30491515  0.75680961  0.94145718    -0.07700
C779        C  0.25403048  0.78562939  0.93069075    -0.02200
C780        C  0.20421649  0.75372049  0.94013192     0.04600
N781        N  0.15812905  0.77778856  0.96118926     0.67100
H782        H  0.17005719  0.67268410  0.94757120     0.16000
H783        H  0.34036260  0.78178655  0.95198675     0.15700
N784        N  0.36931848  0.67443016  0.94609261     0.74800
O785        O  0.10822778  0.75386427  0.96163924    -0.38700
O786        O  0.17097107  0.81208576  0.98530714    -0.38600
O787        O  0.41025617  0.69745682  0.92909443    -0.39300
O788        O  0.38291424  0.66104729  0.97651223    -0.39400
C789        C  0.10228149  0.79045777  0.87801058    -0.11700
C790        C  0.11269768  0.78513838  0.84193833     0.05400
C791        C  0.13893805  0.83945200  0.83061250    -0.06900
C792        C  0.18500619  0.86478009  0.85138212    -0.07700
C793        C  0.19284718  0.84728949  0.88637456    -0.02200
C794        C  0.13617949  0.83031522  0.89869386     0.04600
N795        N  0.10351210  0.87269891  0.91840268     0.67100
H796        H  0.05944667  0.77796513  0.88725683     0.16000
H797        H  0.20755081  0.90215140  0.84129033     0.15700
N798        N  0.12379095  0.86557491  0.79815994     0.74800
O799        O  0.10545754  0.92600443  0.90959947    -0.38700
O800        O  0.06365945  0.85658762  0.93883059    -0.38600
O801        O  0.07041221  0.87445538  0.79125266    -0.39300
O802        O  0.16213666  0.89290921  0.78110908    -0.39400
C803        C  0.39790213  0.78063020  0.86956632    -0.11700
C804        C  0.37875974  0.77880210  0.83500950     0.05400
C805        C  0.35040129  0.83360468  0.82602708    -0.06900
C806        C  0.31632195  0.86454394  0.85121997    -0.07700
C807        C  0.31489430  0.84693439  0.88599588    -0.02200
C808        C  0.37070051  0.81966500  0.89404855     0.04600
N809        N  0.40646713  0.84199235  0.92157848     0.67100
H810        H  0.43666762  0.75621295  0.87653877     0.16000
H811        H  0.29635860  0.90550003  0.84404593     0.15700
N812        N  0.35244038  0.85682003  0.79190740     0.74800
O813        O  0.40547936  0.89600949  0.92838191    -0.38700
O814        O  0.44756067  0.81116144  0.93383865    -0.38600
O815        O  0.30590933  0.87670045  0.77859931    -0.39300
O816        O  0.40103824  0.87480194  0.78054687    -0.39400
C817        C  0.74585854  0.34385426  0.40757632    -0.01900
C818        C  0.86155708  0.21087634  0.31312162    -0.01900
C819        C  0.74532782  0.09552404  0.41244096    -0.01900
C820        C  0.60993219  0.21253494  0.32153789    -0.01900
C821        C  0.87825738  0.20827404  0.15612561    -0.01900
C822        C  0.74413151  0.33155231  0.07099745    -0.01900
C823        C  0.63458960  0.20006250  0.17183592    -0.01900
C824        C  0.72091936  0.08372234  0.07074261    -0.01900
O825        O  0.68376622  0.01385385  0.02654204    -0.73800
O826        O  0.69784969  0.40690194  0.45033004    -0.73800
O827        O  0.69286538  0.39621173  0.02554338    -0.73900
O828        O  0.69758227  0.02127982  0.45223343    -0.73900
O829        O  0.79341917  0.02924571  0.45656592    -0.73900
O830        O  0.78956203  0.39796817  0.02643512    -0.73900
O831        O  0.79480116  0.40798762  0.45151650    -0.73800
O832        O  0.78045640  0.01929801  0.03110604    -0.73900
Ni833      Ni  0.69080587  0.46326314  0.48744533     1.25400
Ni834      Ni  0.79391645  0.46490942  0.49000514     1.25400
C835        C  0.72877312  0.03528037  0.04184664     0.88400
C836        C  0.74684034  0.39085077  0.43695710     0.87500
C837        C  0.74150323  0.37739718  0.03917313     0.88300
C838        C  0.74574536  0.04512319  0.44138213     0.88500
O839        O  0.92804209  0.25933096  0.27084294    -0.73800
O840        O  0.56174188  0.25330589  0.20771767    -0.73800
O841        O  0.94166114  0.25532187  0.19857013    -0.73900
O842        O  0.54713029  0.25885183  0.27810008    -0.73900
O843        O  0.54373719  0.16210285  0.28056229    -0.73900
O844        O  0.94284898  0.15814535  0.19899641    -0.73900
O845        O  0.55947516  0.15641335  0.20955499    -0.73800
O846        O  0.92645922  0.16246237  0.27051049    -0.73900
Ni847      Ni  0.99367110  0.26192945  0.23799212     1.25400
Ni848      Ni  0.99386195  0.15830547  0.23976197     1.25400
C849        C  0.90647678  0.21095624  0.28251850     0.88400
C850        C  0.58303467  0.20365974  0.19809610     0.88300
C851        C  0.92604558  0.20647857  0.18480354     0.88300
C852        C  0.56264145  0.21101301  0.29281430     0.88500
C853        C  0.60951421  0.09534724  0.09081880    -0.11700
C854        C  0.66545327  0.06853667  0.09562375     0.05400
C855        C  0.66786684  0.04967305  0.13009828    -0.06900
C856        C  0.64453391  0.08789534  0.15624488    -0.07700
C857        C  0.62211744  0.14309268  0.14780525    -0.02200
C858        C  0.59045551  0.13771739  0.11613363     0.04600
N859        N  0.54079305  0.17282889  0.10872102     0.67100
H860        H  0.59085717  0.09727982  0.06517140     0.16000
H861        H  0.63715635  0.07266552  0.18223620     0.15700
N862        N  0.66547486  0.98786392  0.13629616     0.74800
O863        O  0.53315388  0.19246930  0.07864052    -0.38700
O864        O  0.50515235  0.18582231  0.13232496    -0.38600
O865        O  0.66152257  0.96883046  0.16671654    -0.39300
O866        O  0.65704373  0.45690040  0.10925102    -0.39400
C867        C  0.67171505  0.18650045  0.07176592    -0.11700
C868        C  0.70285865  0.14523261  0.05427394     0.05400
C869        C  0.72920746  0.17304569  0.02627204    -0.06900
C870        C  0.74266479  0.23597116  0.02729066    -0.07700
C871        C  0.73251848  0.26588440  0.05943130    -0.02200
C872        C  0.70787263  0.22761217  0.08402028     0.04600
N873        N  0.73646853  0.21418508  0.11483803     0.67100
H874        H  0.63586243  0.20437201  0.05662589     0.16000
H875        H  0.76051320  0.25911285  0.00571569     0.15700
N876        N  0.74281675  0.14125214  0.49745184     0.74800
O877        O  0.77862651  0.24376919  0.12330928    -0.38700
O878        O  0.73017986  0.16549482  0.12891923    -0.38600
O879        O  0.69704121  0.11384067  0.48912162    -0.39300
O880        O  0.79072182  0.11474764  0.49542426    -0.39400
C881        C  0.70109799  0.34592760  0.13573338    -0.11700
C882        C  0.69143014  0.34100854  0.09959386     0.05400
C883        C  0.63266836  0.31957142  0.09408509    -0.06900
C884        C  0.60691505  0.27931330  0.11867848    -0.07700
C885        C  0.63709733  0.26274694  0.14946895    -0.02200
C886        C  0.66669879  0.31443947  0.16024656     0.04600
N887        N  0.64286713  0.34741081  0.18865457     0.67100
H888        H  0.72104081  0.38513978  0.14507925     0.16000
H889        H  0.56125879  0.27073966  0.11608962     0.15700
N890        N  0.59952398  0.33736814  0.06467483     0.74800
O891        O  0.67617766  0.37736728  0.20757741    -0.38700
O892        O  0.58876440  0.35934048  0.18886474    -0.38600
O893        O  0.58417991  0.29963053  0.04277132    -0.39300
O894        O  0.57251787  0.38574682  0.06572065    -0.39400
C895        C  0.72645739  0.24326134  0.20383311    -0.11700
C896        C  0.69784135  0.19160565  0.19310769     0.05400
C897        C  0.74155421  0.14323915  0.19556259    -0.06900
C898        C  0.80169195  0.15621177  0.19378498    -0.07700
C899        C  0.82090744  0.20874906  0.18035417    -0.02200
C900        C  0.78573579  0.25537456  0.19395920     0.04600
N901        N  0.81149136  0.30782250  0.20666307     0.67100
H902        H  0.70199333  0.27488035  0.21847513     0.16000
H903        H  0.83336363  0.12329230  0.20103293     0.15700
N904        N  0.73292813  0.08241494  0.20366593     0.74800
O905        O  0.78641209  0.35629367  0.20137419    -0.38700
O906        O  0.84764981  0.30420182  0.23100924    -0.38600
O907        O  0.74478288  0.04685574  0.18018926    -0.39300
O908        O  0.75109553  0.06503408  0.23228531    -0.39400
C909        C  0.85127049  0.09451125  0.13943605    -0.11700
C910        C  0.87345488  0.15036714  0.13019818     0.05400
C911        C  0.87469101  0.15188846  0.09344330    -0.06900
C912        C  0.82399855  0.13536783  0.07527706    -0.07700
C913        C  0.78391388  0.09419704  0.08892028    -0.02200
C914        C  0.80793060  0.06513071  0.11845138     0.04600
N915        N  0.79863066  0.00406879  0.12378324     0.67100
H916        H  0.86960646  0.07260347  0.16164175     0.16000
H917        H  0.82456772  0.14341569  0.04813700     0.15700
N918        N  0.92789597  0.13555363  0.07602691     0.74800
O919        O  0.78245212  0.97235920  0.09897906    -0.38700
O920        O  0.82354479  0.47941261  0.15041258    -0.38600
O921        O  0.95715318  0.09239015  0.08719019    -0.39300
O922        O  0.93574889  0.15151347  0.04519109    -0.39400
C923        C  0.89650326  0.26759359  0.09632532    -0.11700
C924        C  0.88721958  0.26727679  0.13260459     0.05400
C925        C  0.86749022  0.32320030  0.14251280    -0.06900
C926        C  0.82423601  0.35095072  0.12141075    -0.07700
C927        C  0.80979002  0.33114327  0.08755238    -0.02200
C928        C  0.85683877  0.29716943  0.07359820     0.04600
N929        N  0.86966323  0.29837095  0.03758040     0.67100
H930        H  0.93300352  0.24408022  0.08551063     0.16000
H931        H  0.80540017  0.38927011  0.13105275     0.15700
N932        N  0.90832562  0.36023104  0.16033493     0.74800
O933        O  0.87262634  0.25079140  0.02117631    -0.38700
O934        O  0.89563243  0.34265070  0.02549935    -0.38600
O935        O  0.95997787  0.36480749  0.14886722    -0.39300
O936        O  0.89115063  0.39594674  0.18300727    -0.39400
C937        C  0.67165739  0.07265790  0.35816442    -0.11700
C938        C  0.68107524  0.09338580  0.39214082     0.05400
C939        C  0.62528737  0.11621802  0.40401023    -0.06900
C940        C  0.59245749  0.15338271  0.38135609    -0.07700
C941        C  0.60682181  0.15498959  0.34605827    -0.02200
C942        C  0.62691932  0.09835162  0.33687038     0.04600
N943        N  0.58626255  0.05909930  0.32015656     0.67100
H944        H  0.68475137  0.02803628  0.35295950     0.16000
H945        H  0.54987071  0.16932833  0.38926826     0.15700
N946        N  0.59647889  0.09413711  0.43431748     0.74800
O947        O  0.53185651  0.06954915  0.32163751    -0.38700
O948        O  0.60261279  0.00853127  0.31091269    -0.38600
O949        O  0.56378013  0.12789323  0.45163910    -0.39300
O950        O  0.58889625  0.03963033  0.43724647    -0.39400
C951        C  0.70583813  0.25828889  0.30285330    -0.11700
C952        C  0.66971563  0.21077277  0.30000427     0.05400
C953        C  0.70188051  0.16373240  0.28289793    -0.06900
C954        C  0.76585183  0.16937520  0.27978854    -0.07700
C955        C  0.79564821  0.21180791  0.30071615    -0.02200
C956        C  0.75517605  0.24315743  0.32051381     0.04600
N957        N  0.75001039  0.22842755  0.35611708     0.67100
H958        H  0.71398144  0.28085045  0.27871307     0.16000
H959        H  0.79181591  0.13855663  0.26560322     0.15700
N960        N  0.67489031  0.10984588  0.27361686     0.74800
O961        O  0.70137108  0.21721663  0.36917534    -0.38700
O962        O  0.79415400  0.21502545  0.37312750    -0.38600
O963        O  0.63428109  0.10868994  0.25173296    -0.39300
O964        O  0.69578137  0.06214501  0.28485586    -0.39400
C965        C  0.79481406  0.07394141  0.35038887    -0.11700
C966        C  0.79983012  0.08855763  0.38555688     0.05400
C967        C  0.85912160  0.10526324  0.39234675    -0.06900
C968        C  0.88817109  0.14347337  0.36817529    -0.07700
C969        C  0.86620582  0.14974989  0.33446204    -0.02200
C970        C  0.83305799  0.09871306  0.32536198     0.04600
N971        N  0.85068045  0.06238583  0.29681481     0.67100
H972        H  0.77337286  0.03361996  0.34391994     0.16000
H973        H  0.93104554  0.16063711  0.37371058     0.15700
N974        N  0.89477519  0.06983745  0.41487326     0.74800
O975        O  0.81610934  0.02382355  0.28553028    -0.38700
O976        O  0.90448946  0.05703879  0.28986138    -0.38600
O977        O  0.88127133  0.51226749  0.41310135    -0.39300
O978        O  0.94468447  0.08763772  0.42415860    -0.39400
C979        C  0.70049093  0.19247170  0.43748319    -0.11700
C980        C  0.75244783  0.16067648  0.42956508     0.05400
C981        C  0.80402567  0.19605888  0.43996295    -0.06900
C982        C  0.79762084  0.25782073  0.44150536    -0.07700
C983        C  0.74653346  0.28506955  0.42962478    -0.02200
C984        C  0.69740813  0.25289791  0.44033483     0.04600
N985        N  0.65271262  0.27695024  0.46249545     0.67100
H986        H  0.66348325  0.17141033  0.44760983     0.16000
H987        H  0.83281736  0.28377990  0.45176718     0.15700
N988        N  0.86278260  0.17644543  0.44784126     0.74800
O989        O  0.60393953  0.25132851  0.46565144    -0.38700
O990        O  0.66619448  0.31497152  0.48447129    -0.38600
O991        O  0.90336448  0.19951224  0.43062666    -0.39300
O992        O  0.87632101  0.16415878  0.47842776    -0.39400
C993        C  0.60164409  0.28104611  0.38046084    -0.11700
C994        C  0.60822629  0.27543003  0.34383441     0.05400
C995        C  0.63027341  0.33052961  0.33103858    -0.06900
C996        C  0.67516330  0.36009044  0.35045777    -0.07700
C997        C  0.68428840  0.34620438  0.38578151    -0.02200
C998        C  0.63029507  0.32643379  0.39922298     0.04600
N999        N  0.59361387  0.36863733  0.41653742     0.67100
H1000       H  0.57069409  0.25649906  0.39461581     0.16000
H1001       H  0.69483040  0.39822059  0.33952170     0.15700
N1002       N  0.60981262  0.35535534  0.29944035     0.74800
O1003       O  0.58695139  0.41903961  0.40353710    -0.38700
O1004       O  0.56075030  0.35350398  0.44110253    -0.38600
O1005       O  0.55884158  0.37714943  0.29868474    -0.39300
O1006       O  0.64620711  0.37047739  0.27667228    -0.39400
C1007       C  0.83884012  0.32480237  0.32238849    -0.11700
C1008       C  0.86898383  0.27333829  0.33377028     0.05400
C1009       C  0.89062933  0.28218322  0.36768655    -0.06900
C1010       C  0.85855654  0.31921931  0.39106170    -0.07700
C1011       C  0.80367597  0.34412628  0.38197307    -0.02200
C1012       C  0.80558277  0.35991926  0.34622715     0.04600
N1013       N  0.79513249  0.41956809  0.33675333     0.67100
H1014       H  0.83327527  0.33251034  0.29510469     0.16000
H1015       H  0.87781772  0.33111410  0.41539651     0.15700
N1016       N  0.95017415  0.26814982  0.37527357     0.74800
O1017       O  0.78113095  0.43251581  0.30617593    -0.38700
O1018       O  0.81408873  0.45920308  0.35635324    -0.38600
O1019       O  0.97128523  0.28122178  0.40430810    -0.39300
O1020       O  0.98422846  0.25383549  0.35107818    -0.39400
C1021       C  0.74626001  0.33785255  0.90975633    -0.01900
C1022       C  0.86187567  0.20764872  0.81431380    -0.01900
C1023       C  0.74234306  0.09062765  0.91241067    -0.01900
C1024       C  0.61017899  0.21113168  0.82107148    -0.01900
C1025       C  0.87676815  0.21327283  0.65700933    -0.01900
C1026       C  0.74456349  0.33651289  0.57055043    -0.01900
C1027       C  0.63324883  0.20307575  0.67041324    -0.01900
C1028       C  0.72346222  0.08852180  0.56956372    -0.01900
O1029       O  0.68650992  0.01853417  0.52571635    -0.73800
O1030       O  0.69771433  0.40183236  0.95167362    -0.73800
O1031       O  0.69347014  0.40146486  0.52481690    -0.73900
O1032       O  0.69453289  0.01722308  0.95288499    -0.73900
O1033       O  0.79048676  0.02484824  0.95678782    -0.73900
O1034       O  0.79013230  0.40220897  0.52536015    -0.73900
O1035       O  0.79462659  0.40341909  0.95296877    -0.73800
O1036       O  0.78320953  0.02321051  0.53060854    -0.73900
Ni1037     Ni  0.68996673  0.45836607  0.98857306     1.25400
Ni1038     Ni  0.79308475  0.46057082  0.99119518     1.25400
C1039       C  0.73154527  0.03972085  0.54105330     0.88400
C1040       C  0.74683028  0.38549889  0.93864724     0.87500
C1041       C  0.74203705  0.38234879  0.53848253     0.88300
C1042       C  0.74264578  0.04068063  0.94168341     0.88500
O1043       O  0.92747424  0.25833998  0.77224957    -0.73800
O1044       O  0.56053582  0.25421359  0.70724309    -0.73800
O1045       O  0.94080926  0.25867462  0.69982706    -0.73900
O1046       O  0.54708381  0.25816938  0.77785840    -0.73900
O1047       O  0.54440776  0.16131000  0.77958865    -0.73900
O1048       O  0.94173032  0.16148125  0.69891867    -0.73900
O1049       O  0.55988309  0.15729122  0.70842561    -0.73800
O1050       O  0.92679695  0.16146892  0.77072403    -0.73900
Ni1051     Ni  0.99307766  0.26298963  0.73924877     1.25400
Ni1052     Ni  0.99353372  0.15933758  0.73934514     1.25400
C1053       C  0.90667317  0.20928513  0.78355172     0.88400
C1054       C  0.58221765  0.20516516  0.69700608     0.88300
C1055       C  0.92481219  0.21046801  0.68550365     0.88300
C1056       C  0.56308393  0.21008024  0.79216540     0.88500
C1057       C  0.61142025  0.10056171  0.58835039    -0.11700
C1058       C  0.66709836  0.07376467  0.59379917     0.05400
C1059       C  0.66798018  0.05387522  0.62807526    -0.06900
C1060       C  0.64331914  0.09122295  0.65424212    -0.07700
C1061       C  0.62137116  0.14666795  0.64592534    -0.02200
C1062       C  0.59134828  0.14234613  0.61365399     0.04600
N1063       N  0.54099552  0.17645815  0.60614895     0.67100
H1064       H  0.59365625  0.10273754  0.56248956     0.16000
H1065       H  0.63557082  0.07547941  0.68009390     0.15700
N1066       N  0.66649597  0.99187479  0.63364199     0.74800
O1067       O  0.53298986  0.19569624  0.57599981    -0.38700
O1068       O  0.50519684  0.18910927  0.62976282    -0.38600
O1069       O  0.65987274  0.97182155  0.66368656    -0.39300
O1070       O  0.69434236  0.46360981  0.60454032    -0.39400
C1071       C  0.67384655  0.19110277  0.56917484    -0.11700
C1072       C  0.70647589  0.14988913  0.55256038     0.05400
C1073       C  0.73573600  0.17761580  0.52545458    -0.06900
C1074       C  0.74878026  0.24063509  0.52681986    -0.07700
C1075       C  0.73477083  0.27080548  0.55850782    -0.02200
C1076       C  0.70901813  0.23225924  0.58242017     0.04600
N1077       N  0.73627056  0.21874598  0.61375396     0.67100
H1078       H  0.63893503  0.20873000  0.55316668     0.16000
H1079       H  0.76883251  0.26350503  0.50571339     0.15700
N1080       N  0.73293109  0.13714242  0.99795517     0.74800
O1081       O  0.77324431  0.25210622  0.62551183    -0.38700
O1082       O  0.73016328  0.16982025  0.62759807    -0.38600
O1083       O  0.68629313  0.11035658  0.99043872    -0.39300
O1084       O  0.78021950  0.11008425  0.99509750    -0.39400
C1085       C  0.69925472  0.34925791  0.63541693    -0.11700
C1086       C  0.69092772  0.34460428  0.59900521     0.05400
C1087       C  0.63263648  0.32290445  0.59281218    -0.06900
C1088       C  0.60630672  0.28230733  0.61700416    -0.07700
C1089       C  0.63490110  0.26627740  0.64845642    -0.02200
C1090       C  0.66404494  0.31801108  0.65951874     0.04600
N1091       N  0.64014708  0.35113964  0.68789543     0.67100
H1092       H  0.71992793  0.38722729  0.64572769     0.16000
H1093       H  0.56065325  0.27417848  0.61391747     0.15700
N1094       N  0.60033326  0.34122333  0.56320671     0.74800
O1095       O  0.67266730  0.38512847  0.70485992    -0.38700
O1096       O  0.58549452  0.35969686  0.68924959    -0.38600
O1097       O  0.58399526  0.30371644  0.54141515    -0.39300
O1098       O  0.57553601  0.39079352  0.56367482    -0.39400
C1099       C  0.72391869  0.24663944  0.70333928    -0.11700
C1100       C  0.69625040  0.19492600  0.69176231     0.05400
C1101       C  0.73995046  0.14663463  0.69456129    -0.06900
C1102       C  0.80001822  0.15993531  0.69381399    -0.07700
C1103       C  0.81932794  0.21281599  0.68102554    -0.02200
C1104       C  0.78378011  0.25888515  0.69492583     0.04600
N1105       N  0.80914071  0.31043137  0.70909385     0.67100
H1106       H  0.69854001  0.27817255  0.71761397     0.16000
H1107       H  0.83163263  0.12707653  0.70124108     0.15700
N1108       N  0.73123629  0.08559530  0.70207290     0.74800
O1109       O  0.78297738  0.35883846  0.70570404    -0.38700
O1110       O  0.84572508  0.30500260  0.73313032    -0.38600
O1111       O  0.74328813  0.05066948  0.67834222    -0.39300
O1112       O  0.74933301  0.06738439  0.73053288    -0.39400
C1113       C  0.85144281  0.09968670  0.63957030    -0.11700
C1114       C  0.87305382  0.15592703  0.63079131     0.05400
C1115       C  0.87561372  0.15800828  0.59415425    -0.06900
C1116       C  0.82611452  0.14072369  0.57536606    -0.07700
C1117       C  0.78591271  0.09905675  0.58832751    -0.02200
C1118       C  0.80911764  0.07008019  0.61803237     0.04600
N1119       N  0.80013881  0.00900232  0.62316907     0.67100
H1120       H  0.86943965  0.07774584  0.66185505     0.16000
H1121       H  0.82871124  0.14818877  0.54831229     0.15700
N1122       N  0.92958718  0.14297334  0.57721632     0.74800
O1123       O  0.78523559  0.97714235  0.59815723    -0.38700
O1124       O  0.82776380  0.48409955  0.64766077    -0.38600
O1125       O  0.95858070  0.09940552  0.58805960    -0.39300
O1126       O  0.93804278  0.15991938  0.54661147    -0.39400
C1127       C  0.89590125  0.27372681  0.59787275    -0.11700
C1128       C  0.88468164  0.27278721  0.63392272     0.05400
C1129       C  0.86408703  0.32855096  0.64388150    -0.06900
C1130       C  0.82226307  0.35669417  0.62188387    -0.07700
C1131       C  0.80951307  0.33674769  0.58788916    -0.02200
C1132       C  0.85744673  0.30349464  0.57460861     0.04600
N1133       N  0.87402330  0.30834561  0.53923892     0.67100
H1134       H  0.93352927  0.25118920  0.58768618     0.16000
H1135       H  0.80274719  0.39526201  0.63067490     0.15700
N1136       N  0.90377294  0.36541442  0.66271128     0.74800
O1137       O  0.87988830  0.26250877  0.52145898    -0.38700
O1138       O  0.89998501  0.35431739  0.52957203    -0.38600
O1139       O  0.95558903  0.37146707  0.65175186    -0.39300
O1140       O  0.88522112  0.40029337  0.68546019    -0.39400
C1141       C  0.66995552  0.06959912  0.85726049    -0.11700
C1142       C  0.67848792  0.08875084  0.89163097     0.05400
C1143       C  0.62262972  0.11182770  0.90309224    -0.06900
C1144       C  0.59137283  0.15083841  0.88066369    -0.07700
C1145       C  0.60655708  0.15322969  0.84543058    -0.02200
C1146       C  0.62600278  0.09647679  0.83588662     0.04600
N1147       N  0.58493387  0.05809016  0.81882236     0.67100
H1148       H  0.68251918  0.02494990  0.85168825     0.16000
H1149       H  0.54917725  0.16769706  0.88856281     0.15700
N1150       N  0.59288752  0.08938078  0.93298672     0.74800
O1151       O  0.53064506  0.06914983  0.82034524    -0.38700
O1152       O  0.60067990  0.00744244  0.80936535    -0.38600
O1153       O  0.55982857  0.12287185  0.95024916    -0.39300
O1154       O  0.58586508  0.03479537  0.93587977    -0.39400
C1155       C  0.70724027  0.25625295  0.80312771    -0.11700
C1156       C  0.67045498  0.20925119  0.79994671     0.05400
C1157       C  0.70245462  0.16218931  0.78290640    -0.06900
C1158       C  0.76656956  0.16737707  0.78020242    -0.07700
C1159       C  0.79635032  0.20932943  0.80163030    -0.02200
C1160       C  0.75597050  0.24081687  0.82131447     0.04600
N1161       N  0.74954582  0.22501328  0.85677038     0.67100
H1162       H  0.71670975  0.27820055  0.77893968     0.16000
H1163       H  0.79247078  0.13691349  0.76572577     0.15700
N1164       N  0.67479172  0.10895281  0.77298820     0.74800
O1165       O  0.70031363  0.21504094  0.86938684    -0.38700
O1166       O  0.79277409  0.20966983  0.87405206    -0.38600
O1167       O  0.63463037  0.10908482  0.75079775    -0.39300
O1168       O  0.69503490  0.06058228  0.78364449    -0.39400
C1169       C  0.79312605  0.07018841  0.85030051    -0.11700
C1170       C  0.79746352  0.08406225  0.88564833     0.05400
C1171       C  0.85690558  0.09991195  0.89277832    -0.06900
C1172       C  0.88678610  0.13837565  0.86908068    -0.07700
C1173       C  0.86579025  0.14563525  0.83512251    -0.02200
C1174       C  0.83197948  0.09519860  0.82558378     0.04600
N1175       N  0.84852513  0.05997131  0.79634225     0.67100
H1176       H  0.77134965  0.03028516  0.84336625     0.16000
H1177       H  0.92977037  0.15465831  0.87515931     0.15700
N1178       N  0.89196662  0.06346787  0.91507185     0.74800
O1179       O  0.90196310  0.05531600  0.78833683    -0.38700
O1180       O  0.81337954  0.02222161  0.78471495    -0.38600
O1181       O  0.88008763  0.50774062  0.91415551    -0.39300
O1182       O  0.94199612  0.08046852  0.92467233    -0.39400
C1183       C  0.69693243  0.18753184  0.93734725    -0.11700
C1184       C  0.74892016  0.15527707  0.92989207     0.05400
C1185       C  0.80052205  0.18919235  0.94143271    -0.06900
C1186       C  0.79473244  0.25084621  0.94417385    -0.07700
C1187       C  0.74458186  0.27953476  0.93202359    -0.02200
C1188       C  0.69437083  0.24785012  0.94101035     0.04600
N1189       N  0.64814655  0.27206456  0.96209076     0.67100
H1190       H  0.65933573  0.16682573  0.94678663     0.16000
H1191       H  0.82966884  0.27591071  0.95547218     0.15700
N1192       N  0.85901310  0.16808322  0.94877501     0.74800
O1193       O  0.59885231  0.24705343  0.96375067    -0.38700
O1194       O  0.65973793  0.31081226  0.98404118    -0.38600
O1195       O  0.90050646  0.19353240  0.93360993    -0.39300
O1196       O  0.87161944  0.14681270  0.97776620    -0.39400
C1197       C  0.60109197  0.27941781  0.87986939    -0.11700
C1198       C  0.60825806  0.27394790  0.84335146     0.05400
C1199       C  0.63225247  0.32845618  0.83102116    -0.06900
C1200       C  0.67908146  0.35498573  0.85050440    -0.07700
C1201       C  0.68617561  0.34146554  0.88630461    -0.02200
C1202       C  0.63087929  0.32369225  0.89895762     0.04600
N1203       N  0.59570441  0.36607364  0.91717695     0.67100
H1204       H  0.57002677  0.25482092  0.89382402     0.16000
H1205       H  0.70476876  0.38772846  0.83782490     0.15700
N1206       N  0.61281203  0.35451251  0.79949514     0.74800
O1207       O  0.59784970  0.41936329  0.90832333    -0.38700
O1208       O  0.55503128  0.34981455  0.93700641    -0.38600
O1209       O  0.56568256  0.38373539  0.79976858    -0.39300
O1210       O  0.64832217  0.36191770  0.77498433    -0.39400
C1211       C  0.84097570  0.32232173  0.82626922    -0.11700
C1212       C  0.86965424  0.26883439  0.83618296     0.05400
C1213       C  0.89135518  0.27426070  0.87022771    -0.06900
C1214       C  0.85931392  0.30897769  0.89470762    -0.07700
C1215       C  0.80537553  0.33623444  0.88577001    -0.02200
C1216       C  0.81019864  0.35720697  0.85152940     0.04600
N1217       N  0.80500850  0.41913480  0.84627647     0.67100
H1218       H  0.83569497  0.33300114  0.79929711     0.16000
H1219       H  0.87887455  0.31878112  0.91927370     0.15700
N1220       N  0.95108050  0.25995562  0.87700265     0.74800
O1221       O  0.84207220  0.44417415  0.82720566    -0.38700
O1222       O  0.77711600  0.44967328  0.86796935    -0.38600
O1223       O  0.97219357  0.26847874  0.90659652    -0.39300
O1224       O  0.98503495  0.24922632  0.85213010    -0.39400
C1225       C  0.75485100  0.84571106  0.40914357    -0.01900
C1226       C  0.86760745  0.71621677  0.31276806    -0.01900
C1227       C  0.74681983  0.59761507  0.41028041    -0.01900
C1228       C  0.61552399  0.72414698  0.32045747    -0.01900
C1229       C  0.88394310  0.70632134  0.15568641    -0.01900
C1230       C  0.75053499  0.83154425  0.07085039    -0.01900
C1231       C  0.63943407  0.70057944  0.17094477    -0.01900
C1232       C  0.72795617  0.58391847  0.06992193    -0.01900
O1233       O  0.68662888  0.51649060  0.02571228    -0.73800
O1234       O  0.70413764  0.90458648  0.45237255    -0.73800
O1235       O  0.69705010  0.89416949  0.02613512    -0.73900
O1236       O  0.69701174  0.52417561  0.45039713    -0.73900
O1237       O  0.79313188  0.52771601  0.45420382    -0.73900
O1238       O  0.79348526  0.90102424  0.02776275    -0.73900
O1239       O  0.80060917  0.91071915  0.45378753    -0.73800
O1240       O  0.78351372  0.51677912  0.02983994    -0.73900
Ni1241     Ni  0.69366913  0.96046817  0.48904243     1.25400
Ni1242     Ni  0.79657888  0.96729031  0.49221507     1.25400
C1243       C  0.73301369  0.53517557  0.04098617     0.88400
C1244       C  0.75378101  0.89136708  0.43906212     0.87500
C1245       C  0.74638419  0.87779408  0.03983621     0.88300
C1246       C  0.74600922  0.54602281  0.43914793     0.88500
O1247       O  0.93374562  0.76133773  0.26935706    -0.73800
O1248       O  0.56687234  0.75558911  0.20582684    -0.73800
O1249       O  0.94802186  0.75420518  0.19718157    -0.73900
O1250       O  0.55268430  0.76641177  0.27587007    -0.73900
O1251       O  0.54955017  0.67004057  0.28077613    -0.73900
O1252       O  0.94730008  0.65724570  0.19983132    -0.73900
O1253       O  0.56469790  0.65889541  0.20968246    -0.73800
O1254       O  0.93280654  0.66448923  0.27157539    -0.73900
Ni1255     Ni  0.99921069  0.76282810  0.23657862     1.25400
Ni1256     Ni  0.99938253  0.65936970  0.24021433     1.25400
C1257       C  0.91268083  0.71390550  0.28236085     0.88400
C1258       C  0.58806551  0.70544408  0.19716820     0.88300
C1259       C  0.93125240  0.70497896  0.18462644     0.88300
C1260       C  0.56829693  0.71994874  0.29179727     0.88500
C1261       C  0.61642676  0.59776839  0.08938232    -0.11700
C1262       C  0.67196146  0.57082875  0.09479393     0.05400
C1263       C  0.67309740  0.55105484  0.12914921    -0.06900
C1264       C  0.64852793  0.58854494  0.15528719    -0.07700
C1265       C  0.62609696  0.64384990  0.14699885    -0.02200
C1266       C  0.59683429  0.63997381  0.11453587     0.04600
N1267       N  0.54751152  0.67521318  0.10670215     0.67100
H1268       H  0.59859022  0.59987180  0.06353433     0.16000
H1269       H  0.64040268  0.57286315  0.18111238     0.15700
N1270       N  0.66948694  0.48915854  0.13455851     0.74800
O1271       O  0.54126414  0.69575301  0.07671813    -0.38700
O1272       O  0.51098926  0.68772189  0.12994378    -0.38600
O1273       O  0.66156852  0.46940093  0.16455695    -0.39300
O1274       O  0.65145257  0.95441477  0.11183165    -0.39400
C1275       C  0.67827538  0.68681539  0.06800497    -0.11700
C1276       C  0.71280268  0.64545077  0.05271519     0.05400
C1277       C  0.74404662  0.67253912  0.02607460    -0.06900
C1278       C  0.75616215  0.73571854  0.02726264    -0.07700
C1279       C  0.73893817  0.76660514  0.05818769    -0.02200
C1280       C  0.71232068  0.72836032  0.08191948     0.04600
N1281       N  0.74110754  0.71361263  0.11271542     0.67100
H1282       H  0.64451797  0.70380817  0.05095024     0.16000
H1283       H  0.77737756  0.75838844  0.00649139     0.15700
N1284       N  0.74998018  0.64184131  0.49623187     0.74800
O1285       O  0.78788599  0.73748264  0.11884566    -0.38700
O1286       O  0.73231518  0.66554593  0.12697247    -0.38600
O1287       O  0.70345097  0.61575336  0.48792396    -0.39300
O1288       O  0.79688172  0.61346630  0.49427712    -0.39400
C1289       C  0.70748911  0.84623608  0.13557500    -0.11700
C1290       C  0.69797491  0.84106722  0.09944400     0.05400
C1291       C  0.63896629  0.82031773  0.09373036    -0.06900
C1292       C  0.61293162  0.78028122  0.11818429    -0.07700
C1293       C  0.64325303  0.76311620  0.14871120    -0.02200
C1294       C  0.67273374  0.81466181  0.15988224     0.04600
N1295       N  0.64785430  0.84751360  0.18803172     0.67100
H1296       H  0.72716630  0.88584307  0.14485342     0.16000
H1297       H  0.56697055  0.77287301  0.11596305     0.15700
N1298       N  0.60608266  0.83791607  0.06414888     0.74800
O1299       O  0.68053539  0.87505904  0.20853592    -0.38700
O1300       O  0.59431290  0.86165139  0.18677218    -0.38600
O1301       O  0.58929449  0.79972225  0.04289517    -0.39300
O1302       O  0.58030963  0.88697794  0.06463085    -0.39400
C1303       C  0.73148747  0.74202575  0.20279998    -0.11700
C1304       C  0.70224867  0.69092659  0.19213180     0.05400
C1305       C  0.74510307  0.64194814  0.19402519    -0.06900
C1306       C  0.80531470  0.65426987  0.19205466    -0.07700
C1307       C  0.82522974  0.70672533  0.17874545    -0.02200
C1308       C  0.79047819  0.75361183  0.19238079     0.04600
N1309       N  0.81687897  0.80545592  0.20521956     0.67100
H1310       H  0.70758812  0.77364417  0.21776593     0.16000
H1311       H  0.83659011  0.62150748  0.20008832     0.15700
N1312       N  0.73558958  0.58201426  0.20403696     0.74800
O1313       O  0.79067756  0.85396401  0.20261887    -0.38700
O1314       O  0.85731736  0.80051554  0.22690786    -0.38600
O1315       O  0.74673227  0.54391501  0.18174304    -0.39300
O1316       O  0.75291200  0.56730691  0.23337037    -0.39400
C1317       C  0.85742680  0.59272789  0.13947912    -0.11700
C1318       C  0.88089612  0.64798733  0.13020730     0.05400
C1319       C  0.88345760  0.64884504  0.09357858    -0.06900
C1320       C  0.83334446  0.63224788  0.07491461    -0.07700
C1321       C  0.79106652  0.59319367  0.08855217    -0.02200
C1322       C  0.81321747  0.56451442  0.11864403     0.04600
N1323       N  0.80312189  0.50366561  0.12373989     0.67100
H1324       H  0.87538847  0.57047917  0.16169179     0.16000
H1325       H  0.83637202  0.63830202  0.04778585     0.15700
N1326       N  0.93730891  0.63264099  0.07684327     0.74800
O1327       O  0.78920697  0.47242408  0.09825042    -0.38700
O1328       O  0.81982491  0.98016166  0.15034971    -0.38600
O1329       O  0.96663492  0.59005064  0.08868531    -0.39300
O1330       O  0.94579195  0.64779612  0.04591833    -0.39400
C1331       C  0.90219405  0.76600562  0.09589678    -0.11700
C1332       C  0.89291559  0.76549992  0.13219698     0.05400
C1333       C  0.87306482  0.82143773  0.14223383    -0.06900
C1334       C  0.83002757  0.84959817  0.12126047    -0.07700
C1335       C  0.81625622  0.83090927  0.08724765    -0.02200
C1336       C  0.86360640  0.79724838  0.07320749     0.04600
N1337       N  0.87829372  0.80090146  0.03747123     0.67100
H1338       H  0.93861087  0.74236495  0.08506255     0.16000
H1339       H  0.81241350  0.88907149  0.13035199     0.15700
N1340       N  0.91210122  0.85776428  0.16192182     0.74800
O1341       O  0.88978707  0.75450879  0.02114267    -0.38700
O1342       O  0.89800525  0.84875399  0.02602025    -0.38600
O1343       O  0.96627566  0.85682288  0.15507587    -0.39300
O1344       O  0.89244543  0.89875639  0.18047986    -0.39400
C1345       C  0.66950073  0.57897283  0.35684777    -0.11700
C1346       C  0.68185597  0.59827190  0.39073267     0.05400
C1347       C  0.62852555  0.62499778  0.40308892    -0.06900
C1348       C  0.60056109  0.66781129  0.38169558    -0.07700
C1349       C  0.61281463  0.66787653  0.34595925    -0.02200
C1350       C  0.62703922  0.60965216  0.33611153     0.04600
N1351       N  0.58194783  0.57513647  0.32000835     0.67100
H1352       H  0.67973924  0.53377019  0.35082669     0.16000
H1353       H  0.56277364  0.69097099  0.39131877     0.15700
N1354       N  0.59681356  0.60152065  0.43199394     0.74800
O1355       O  0.59487572  0.52932003  0.30339409    -0.38700
O1356       O  0.52900606  0.58361297  0.32840199    -0.38600
O1357       O  0.56409327  0.63476166  0.44963323    -0.39300
O1358       O  0.58873827  0.54689401  0.43377959    -0.39400
C1359       C  0.71295145  0.76860030  0.30194505    -0.11700
C1360       C  0.67578388  0.72171373  0.29927128     0.05400
C1361       C  0.70723385  0.67428628  0.28224534    -0.06900
C1362       C  0.77102753  0.67943855  0.27852092    -0.07700
C1363       C  0.80205643  0.72080035  0.29980488    -0.02200
C1364       C  0.76233669  0.75303641  0.31970757     0.04600
N1365       N  0.75588326  0.73688545  0.35515991     0.67100
H1366       H  0.72066488  0.79135684  0.27780374     0.16000
H1367       H  0.79547095  0.64846166  0.26367851     0.15700
N1368       N  0.68006970  0.62004167  0.27409872     0.74800
O1369       O  0.70640722  0.73081865  0.36840475    -0.38700
O1370       O  0.79822393  0.71737372  0.37172651    -0.38600
O1371       O  0.64054406  0.61754034  0.25162719    -0.39300
O1372       O  0.70042818  0.57303049  0.28655769    -0.39400
C1373       C  0.79317451  0.58401592  0.34608348    -0.11700
C1374       C  0.80020297  0.59148068  0.38226021     0.05400
C1375       C  0.86064706  0.60394019  0.38939611    -0.06900
C1376       C  0.89201364  0.64278903  0.36633319    -0.07700
C1377       C  0.86950721  0.65415932  0.33313391    -0.02200
C1378       C  0.83529551  0.60582988  0.32234346     0.04600
N1379       N  0.86310348  0.56345357  0.30034293     0.67100
H1380       H  0.76702154  0.54861466  0.33688863     0.16000
H1381       H  0.93609380  0.65693412  0.37203801     0.15700
N1382       N  0.89375311  0.56611060  0.41195152     0.74800
O1383       O  0.85621198  0.56492417  0.26816080    -0.38700
O1384       O  0.90135224  0.52937969  0.31283192    -0.38600
O1385       O  0.88433577  0.01568860  0.41711531    -0.39300
O1386       O  0.94375497  0.58160174  0.42242661    -0.39400
C1387       C  0.70525324  0.69485027  0.43708198    -0.11700
C1388       C  0.75612203  0.66193113  0.42815229     0.05400
C1389       C  0.80888615  0.69557282  0.43838743    -0.06900
C1390       C  0.80376177  0.75717560  0.44115517    -0.07700
C1391       C  0.75334934  0.78645814  0.43012496    -0.02200
C1392       C  0.70295754  0.75528261  0.43951369     0.04600
N1393       N  0.65637735  0.78025460  0.45980040     0.67100
H1394       H  0.66822014  0.67468875  0.44814174     0.16000
H1395       H  0.83943289  0.78182455  0.45171737     0.15700
N1396       N  0.86737576  0.67435609  0.44581943     0.74800
O1397       O  0.60558562  0.75836962  0.45837125    -0.38700
O1398       O  0.66890582  0.81184520  0.48525049    -0.38600
O1399       O  0.90821913  0.69588107  0.42810987    -0.39300
O1400       O  0.88140985  0.66347049  0.47651210    -0.39400
C1401       C  0.60203437  0.79454058  0.37763465    -0.11700
C1402       C  0.61236679  0.78816772  0.34157013     0.05400
C1403       C  0.63981987  0.84175166  0.32995794    -0.06900
C1404       C  0.68654371  0.86630680  0.35058185    -0.07700
C1405       C  0.69383014  0.84937320  0.38571937    -0.02200
C1406       C  0.63671641  0.83431435  0.39801459     0.04600
N1407       N  0.60501975  0.87886545  0.41655762     0.67100
H1408       H  0.55893605  0.78311083  0.38696550     0.16000
H1409       H  0.70985941  0.90303303  0.34030031     0.15700
N1410       N  0.62490297  0.86805447  0.29750646     0.74800
O1411       O  0.60729283  0.93123318  0.40601073    -0.38700
O1412       O  0.56671972  0.86537642  0.43860579    -0.38600
O1413       O  0.57155011  0.87630626  0.29028064    -0.39300
O1414       O  0.66316719  0.89620211  0.28085276    -0.39400
C1415       C  0.89733969  0.77859694  0.36941657    -0.11700
C1416       C  0.87810064  0.77682923  0.33485626     0.05400
C1417       C  0.85082923  0.83211729  0.32571128    -0.06900
C1418       C  0.81760961  0.86407000  0.35085362    -0.07700
C1419       C  0.81568148  0.84665677  0.38565049    -0.02200
C1420       C  0.87088360  0.81839422  0.39378973     0.04600
N1421       N  0.90698357  0.84057038  0.42120313     0.67100
H1422       H  0.93582124  0.75372151  0.37637599     0.16000
H1423       H  0.79858095  0.90542163  0.34358029     0.15700
N1424       N  0.85229869  0.85444592  0.29137454     0.74800
O1425       O  0.90709327  0.89477793  0.42757359    -0.38700
O1426       O  0.94709750  0.80902783  0.43395033    -0.38600
O1427       O  0.80538055  0.87323044  0.27799283    -0.39300
O1428       O  0.90051163  0.87303469  0.27979552    -0.39400
C1429       C  0.75388005  0.84070831  0.90998824    -0.01900
C1430       C  0.86759288  0.71089050  0.81279003    -0.01900
C1431       C  0.74540989  0.59293348  0.91111254    -0.01900
C1432       C  0.61589133  0.72156406  0.82019250    -0.01900
C1433       C  0.88362416  0.70975501  0.65621625    -0.01900
C1434       C  0.75238439  0.83631146  0.57074182    -0.01900
C1435       C  0.63944332  0.70290149  0.66953369    -0.01900
C1436       C  0.72889578  0.58931126  0.56799066    -0.01900
O1437       O  0.68766364  0.52152479  0.52428150    -0.73800
O1438       O  0.70244207  0.90021747  0.95278078    -0.73800
O1439       O  0.69925019  0.89889998  0.52582874    -0.73900
O1440       O  0.69548281  0.51949914  0.95145426    -0.73900
O1441       O  0.79166320  0.52318245  0.95517696    -0.73900
O1442       O  0.79581315  0.90478199  0.52717003    -0.73900
O1443       O  0.79888786  0.90642848  0.95454293    -0.73800
O1444       O  0.78454100  0.52137322  0.52849162    -0.73900
Ni1445     Ni  0.69123648  0.95602806  0.98957238     1.25400
Ni1446     Ni  0.79410135  0.96330655  0.99273746     1.25400
C1447       C  0.73407377  0.54025927  0.53940388     0.88400
C1448       C  0.75231810  0.88675635  0.93975110     0.87500
C1449       C  0.74853746  0.88227219  0.53952457     0.88300
C1450       C  0.74445272  0.54131586  0.94006816     0.88500
O1451       O  0.93416358  0.75941794  0.77051620    -0.73800
O1452       O  0.56697957  0.75654536  0.70522969    -0.73800
O1453       O  0.94838761  0.75535913  0.69843670    -0.73900
O1454       O  0.55366743  0.76466662  0.77560061    -0.73900
O1455       O  0.55067988  0.66817579  0.77962142    -0.73900
O1456       O  0.94780322  0.65850533  0.69965355    -0.73900
O1457       O  0.56534678  0.65975178  0.70812096    -0.73800
O1458       O  0.93533034  0.66305718  0.77167704    -0.73900
Ni1459     Ni  0.99990269  0.76237812  0.73784415     1.25400
Ni1460     Ni  0.00087660  0.65897447  0.73993294     1.25400
C1461       C  0.91365426  0.71122789  0.78279733     0.88400
C1462       C  0.58825115  0.70679549  0.69592958     0.88300
C1463       C  0.93147253  0.70685401  0.68511807     0.88300
C1464       C  0.56912505  0.71783101  0.79121616     0.88500
C1465       C  0.61681967  0.60345874  0.58680567    -0.11700
C1466       C  0.67254185  0.57673410  0.59224694     0.05400
C1467       C  0.67383158  0.55559797  0.62597056    -0.06900
C1468       C  0.64745501  0.59071934  0.65259366    -0.07700
C1469       C  0.62598462  0.64690118  0.64500402    -0.02200
C1470       C  0.59673671  0.64441980  0.61247325     0.04600
N1471       N  0.54679077  0.67929131  0.60519915     0.67100
H1472       H  0.59930750  0.60649635  0.56091139     0.16000
H1473       H  0.63929490  0.57335207  0.67803957     0.15700
N1474       N  0.67702250  0.49358055  0.62986299     0.74800
O1475       O  0.53947977  0.69993453  0.57531434    -0.38700
O1476       O  0.51101267  0.69172156  0.62886322    -0.38600
O1477       O  0.64721050  0.46898821  0.65311583    -0.39300
O1478       O  0.65609772  0.95883739  0.60838186    -0.39400
C1479       C  0.68035594  0.69243358  0.56749190    -0.11700
C1480       C  0.71331104  0.65103643  0.55118112     0.05400
C1481       C  0.74350580  0.67838041  0.52436523    -0.06900
C1482       C  0.75686946  0.74140215  0.52608961    -0.07700
C1483       C  0.74209446  0.77129478  0.55787386    -0.02200
C1484       C  0.71558890  0.73286119  0.58131626     0.04600
N1485       N  0.74281900  0.71827753  0.61250002     0.67100
H1486       H  0.64611921  0.71052143  0.55116148     0.16000
H1487       H  0.77737964  0.76453870  0.50525369     0.15700
N1488       N  0.75043553  0.63637125  0.99773260     0.74800
O1489       O  0.77951189  0.75140807  0.62487788    -0.38700
O1490       O  0.73568561  0.66932758  0.62611271    -0.38600
O1491       O  0.70389316  0.61047358  0.98931643    -0.39300
O1492       O  0.79744757  0.60828690  0.99527864    -0.39400
C1493       C  0.70756308  0.85010521  0.63533061    -0.11700
C1494       C  0.69904531  0.84510098  0.59905133     0.05400
C1495       C  0.64043753  0.82388509  0.59285877    -0.06900
C1496       C  0.61411020  0.78342939  0.61697262    -0.07700
C1497       C  0.64347180  0.76614589  0.64782716    -0.02200
C1498       C  0.67296370  0.81758983  0.65938732     0.04600
N1499       N  0.64827590  0.84977987  0.68784325     0.67100
H1500       H  0.72731337  0.88934187  0.64498928     0.16000
H1501       H  0.56820954  0.77621480  0.61439339     0.15700
N1502       N  0.60775621  0.84231270  0.56336002     0.74800
O1503       O  0.68102868  0.87868669  0.70764154    -0.38700
O1504       O  0.59442228  0.86274962  0.68714142    -0.38600
O1505       O  0.58994922  0.80459483  0.54210413    -0.39300
O1506       O  0.58315688  0.89196920  0.56390954    -0.39400
C1507       C  0.73071582  0.74322697  0.70272880    -0.11700
C1508       C  0.70193772  0.69257439  0.69075331     0.05400
C1509       C  0.74438241  0.64324632  0.69231781    -0.06900
C1510       C  0.80474199  0.65525400  0.69143422    -0.07700
C1511       C  0.82533559  0.70845844  0.67956051    -0.02200
C1512       C  0.79050233  0.75457648  0.69395084     0.04600
N1513       N  0.81674769  0.80588105  0.70751245     0.67100
H1514       H  0.70605726  0.77476945  0.71737825     0.16000
H1515       H  0.83552061  0.62168049  0.69901115     0.15700
N1516       N  0.73388037  0.58287832  0.70084439     0.74800
O1517       O  0.79059686  0.85448029  0.70548339    -0.38700
O1518       O  0.85720364  0.80007539  0.72910928    -0.38600
O1519       O  0.74678750  0.54554890  0.67836011    -0.39300
O1520       O  0.74767597  0.56688743  0.73052699    -0.39400
C1521       C  0.85823523  0.59748751  0.63797110    -0.11700
C1522       C  0.88038304  0.65327369  0.62951548     0.05400
C1523       C  0.88265708  0.65576984  0.59285692    -0.06900
C1524       C  0.83260783  0.63978764  0.57414247    -0.07700
C1525       C  0.79194701  0.59830626  0.58684358    -0.02200
C1526       C  0.81513537  0.56887787  0.61659828     0.04600
N1527       N  0.81072664  0.50714413  0.61983310     0.67100
H1528       H  0.87730857  0.57482141  0.65972195     0.16000
H1529       H  0.83545475  0.64729823  0.54710682     0.15700
N1530       N  0.93602368  0.63924854  0.57571208     0.74800
O1531       O  0.81153443  0.47674860  0.59269805    -0.38700
O1532       O  0.82055894  0.98538561  0.65000910    -0.38600
O1533       O  0.96407850  0.59501948  0.58648682    -0.39300
O1534       O  0.94468618  0.65601289  0.54509200    -0.39400
C1535       C  0.90282712  0.77122794  0.59732033    -0.11700
C1536       C  0.89168005  0.76978156  0.63338056     0.05400
C1537       C  0.87207518  0.82590754  0.64358025    -0.06900
C1538       C  0.83104999  0.85548767  0.62172262    -0.07700
C1539       C  0.81763449  0.83607209  0.58771810    -0.02200
C1540       C  0.86482914  0.80200042  0.57423857     0.04600
N1541       N  0.88054269  0.80585462  0.53866963     0.67100
H1542       H  0.94000521  0.74816152  0.58694040     0.16000
H1543       H  0.81252199  0.89425531  0.63087096     0.15700
N1544       N  0.90857465  0.86044930  0.66601587     0.74800
O1545       O  0.88838686  0.75945511  0.52165167    -0.38700
O1546       O  0.90372836  0.85260252  0.52791612    -0.38600
O1547       O  0.96363618  0.85468298  0.66441547    -0.39300
O1548       O  0.88801451  0.90474818  0.68133915    -0.39400
C1549       C  0.66747199  0.57504285  0.85727362    -0.11700
C1550       C  0.68047037  0.59453045  0.89115064     0.05400
C1551       C  0.62760758  0.62235266  0.90317106    -0.06900
C1552       C  0.60026540  0.66521901  0.88151186    -0.07700
C1553       C  0.61302170  0.66523856  0.84577959    -0.02200
C1554       C  0.62653862  0.60682819  0.83601936     0.04600
N1555       N  0.58123385  0.57338115  0.81938088     0.67100
H1556       H  0.67553374  0.52925172  0.85163282     0.16000
H1557       H  0.56213962  0.68813758  0.89086812     0.15700
N1558       N  0.59495254  0.59875856  0.93164592     0.74800
O1559       O  0.59379777  0.52851627  0.80180883    -0.38700
O1560       O  0.52845644  0.58147350  0.82821546    -0.38600
O1561       O  0.56280214  0.63211444  0.94956100    -0.39300
O1562       O  0.58618933  0.54421047  0.93301903    -0.39400
C1563       C  0.71404481  0.76563196  0.80273854    -0.11700
C1564       C  0.67629734  0.71941806  0.79928472     0.05400
C1565       C  0.70685486  0.67254046  0.78134946    -0.06900
C1566       C  0.77078262  0.67694768  0.77753661    -0.07700
C1567       C  0.80229357  0.71660110  0.79975589    -0.02200
C1568       C  0.76290691  0.74830957  0.82025450     0.04600
N1569       N  0.75607046  0.73107262  0.85553150     0.67100
H1570       H  0.72253172  0.78915919  0.77891373     0.16000
H1571       H  0.79476668  0.64669227  0.76175227     0.15700
N1572       N  0.67864926  0.61902076  0.77299767     0.74800
O1573       O  0.70654087  0.72732364  0.86904241    -0.38700
O1574       O  0.79785812  0.71002029  0.87194466    -0.38600
O1575       O  0.64072356  0.61724119  0.74957494    -0.39300
O1576       O  0.69790258  0.57163665  0.78547595    -0.39400
C1577       C  0.79081280  0.57745034  0.84748033    -0.11700
C1578       C  0.79883337  0.58644667  0.88313875     0.05400
C1579       C  0.85962167  0.59856303  0.88938131    -0.06900
C1580       C  0.89104217  0.63590669  0.86542109    -0.07700
C1581       C  0.86842609  0.64703492  0.83212770    -0.02200
C1582       C  0.83034542  0.59973755  0.82247046     0.04600
N1583       N  0.83977837  0.56542118  0.79155378     0.67100
H1584       H  0.76298603  0.54293792  0.83925394     0.16000
H1585       H  0.93511020  0.65027770  0.87098596     0.15700
N1586       N  0.89288539  0.56145041  0.91226295     0.74800
O1587       O  0.80485495  0.52473459  0.78381118    -0.38700
O1588       O  0.88816097  0.56678235  0.77598546    -0.38600
O1589       O  0.88077170  0.00942569  0.91691594    -0.39300
O1590       O  0.94324109  0.57697052  0.92214470    -0.39400
C1591       C  0.70417115  0.68972038  0.93849191    -0.11700
C1592       C  0.75488861  0.65698840  0.92915313     0.05400
C1593       C  0.80770484  0.69058862  0.93904503    -0.06900
C1594       C  0.80251131  0.75212763  0.94206155    -0.07700
C1595       C  0.75210343  0.78145534  0.93101702    -0.02200
C1596       C  0.70166497  0.75027516  0.94041442     0.04600
N1597       N  0.65499696  0.77550185  0.96045658     0.67100
H1598       H  0.66732710  0.66922015  0.94967536     0.16000
H1599       H  0.83823517  0.77671209  0.95263224     0.15700
N1600       N  0.86629195  0.66924819  0.94592486     0.74800
O1601       O  0.60424681  0.75354325  0.95902094    -0.38700
O1602       O  0.66748193  0.80710046  0.98590795    -0.38600
O1603       O  0.90661814  0.69021377  0.92760523    -0.39300
O1604       O  0.88125882  0.65882980  0.97652323    -0.39400
C1605       C  0.60128154  0.79101932  0.87737383    -0.11700
C1606       C  0.61245077  0.78529270  0.84140409     0.05400
C1607       C  0.64044630  0.83889141  0.83026397    -0.06900
C1608       C  0.68665052  0.86288205  0.85144446    -0.07700
C1609       C  0.69323517  0.84485508  0.88640945    -0.02200
C1610       C  0.63591226  0.82974133  0.89835432     0.04600
N1611       N  0.60398548  0.87414108  0.91685963     0.67100
H1612       H  0.55770692  0.78013271  0.88617421     0.16000
H1613       H  0.71049396  0.89966010  0.84164025     0.15700
N1614       N  0.62745039  0.86509241  0.79749156     0.74800
O1615       O  0.60476460  0.92618727  0.90571623    -0.38700
O1616       O  0.56642502  0.86046467  0.93929851    -0.38600
O1617       O  0.57461827  0.87430720  0.78940922    -0.39300
O1618       O  0.66702147  0.89212639  0.78125230    -0.39400
C1619       C  0.89628834  0.77217657  0.87037923    -0.11700
C1620       C  0.87775215  0.77102770  0.83571286     0.05400
C1621       C  0.85146230  0.82705675  0.82681929    -0.06900
C1622       C  0.81744534  0.85856984  0.85182288    -0.07700
C1623       C  0.81488999  0.84086437  0.88654208    -0.02200
C1624       C  0.86994132  0.81223628  0.89473477     0.04600
N1625       N  0.90625977  0.83465727  0.92198428     0.67100
H1626       H  0.93484879  0.74733409  0.87722565     0.16000
H1627       H  0.79939510  0.90047843  0.84476604     0.15700
N1628       N  0.85753061  0.85241012  0.79339667     0.74800
O1629       O  0.90522783  0.88868547  0.92885747    -0.38700
O1630       O  0.94727532  0.80369654  0.93421946    -0.38600
O1631       O  0.81308083  0.87533617  0.77933535    -0.39300
O1632       O  0.90769437  0.86972407  0.78422189    -0.39400
loop_ 
_geom_bond_atom_site_label_1 
_geom_bond_atom_site_label_2 
_geom_bond_distance 
_geom_bond_site_symmetry_2 
_ccdc_geom_bond_type 
C1           C20   1.563       .  S
C1          C167   1.587       .  S
C1          C181   1.648       .  S
C1          C195   1.641       .  S
C2           C33   1.564       .  S
C2          C139   1.573       .  S
C2          C153   1.625       .  S
C2          C192   1.646       .  S
C3           C22   1.607       .  S
C3          C122   1.661       .  S
C3          C150   1.630       .  S
C3          C164   1.634       .  S
C4           C36   1.555       .  S
C4          C125   1.622       .  S
C4          C136   1.600       .  S
C4          C178   1.676       .  S
C5           C35   1.562       .  S
C5           C83   1.607       .  S
C5           C94   1.664       .  S
C5          C108   1.635       .  S
C6           C21   1.620       .  S
C6           C55   1.587       .  S
C6           C66   1.650       .  S
C6          C111   1.628       .  S
C7           C34   1.556       .  S
C7           C41   1.626       .  S
C7           C69   1.674       .  S
C7           C80   1.669       .  S
C8           C19   1.580       .  S
C8           C38   1.626       .  S
C8           C52   1.593       .  S
C8           C97   1.616       .  S
O9           C19   1.284       .  A
O9         Ni629   1.952   1_544  S
O10          C20   1.281       .  A
O10         Ni17   1.932       .  S
O11          C21   1.300       .  A
O11        Ni221   2.016   1_554  S
O12          C22   1.299       .  A
O12        Ni425   1.996   1_545  S
O13          C22   1.287       .  A
O13        Ni426   1.975   1_545  S
O14          C21   1.291       .  A
O14        Ni222   1.981   1_554  S
O15          C20   1.294       .  A
O15         Ni18   1.981       .  S
O16          C19   1.299       .  A
O16        Ni630   1.983   1_544  S
Ni17        O621   1.952       .  S
Ni17        O215   2.019       .  S
Ni17        O420   2.008       .  S
Ni17        Ni18   2.354       .  S
Ni18        O421   1.996       .  S
Ni18        O218   1.980       .  S
Ni18        O628   1.986       .  S
O23          C33   1.290       .  A
O23         Ni31   1.963       .  S
O24          C34   1.285       .  A
O24        Ni847   1.952   1_455  S
O25          C35   1.287       .  A
O25         Ni31   1.945       .  S
O26          C36   1.281       .  A
O26        Ni847   1.938   1_455  S
O27          C36   1.290       .  A
O27        Ni848   1.962   1_455  S
O28          C35   1.290       .  A
O28         Ni32   1.967       .  S
O29          C34   1.285       .  A
O29        Ni848   1.944   1_455  S
O30          C33   1.282       .  A
O30         Ni32   1.944       .  S
Ni31        O840   1.952       .  S
Ni31        O842   1.932       .  S
Ni31        Ni32   2.364       .  S
Ni32        O843   1.961       .  S
Ni32        O845   1.944       .  S
C37          C38   1.423       .  A
C37          C42   1.443       .  A
C37          H44   1.084       .  S
C38          C39   1.406       .  A
C39          C40   1.438       .  A
C39          N46   1.432   1_545  S
C40          C41   1.395       .  A
C40          H45   1.080       .  S
C41          C42   1.434       .  A
C42          N43   1.415       .  S
N43          O47   1.263       .  A
N43          O48   1.259       .  A
N46         O458   1.261       .  A
N46          O49   1.261       .  A
O50         N454   1.261       .  A
C51          C52   1.356       .  A
C51          C56   1.340       .  A
C51          H58   1.084       .  S
C52          C53   1.397       .  A
C53          C54   1.470       .  A
C53         N264   1.375   1_554  S
C54          C55   1.443       .  A
C54          H59   1.072       .  S
C55          C56   1.407       .  A
C56          N57   1.396       .  S
N57          O61   1.227       .  A
N57          O62   1.247       .  A
N60         C257   1.376       .  S
N60          O64   1.247       .  A
N60          O63   1.262       .  A
C65          C66   1.427       .  A
C65          C70   1.430       .  A
C65          H72   1.067       .  S
C66          C67   1.442       .  A
C67          C68   1.448       .  A
C67          N74   1.428       .  S
C68          C69   1.430       .  A
C68          H73   1.063       .  S
C69          C70   1.424       .  A
C70          N71   1.438       .  S
N71          O75   1.260       .  A
N71          O76   1.262       .  A
N74          O78   1.262       .  A
N74          O77   1.261       .  A
C79          C80   1.413       .  A
C79          C84   1.431       .  A
C79          H86   1.073       .  S
C80          C81   1.485       .  A
C81          C82   1.405       .  A
C81          N88   1.435       .  S
C82          C83   1.377       .  A
C82          H87   1.077       .  S
C83          C84   1.431       .  A
C84          N85   1.423       .  S
N85          O89   1.260       .  A
N85          O90   1.257       .  A
N88          O92   1.250       .  A
N88          O91   1.248       .  A
C93          C94   1.419       .  A
C93          C98   1.448       .  A
C93         H100   1.079       .  S
C94          C95   1.426       .  A
C95          C96   1.402       .  A
C95         N102   1.434       .  S
C96          C97   1.413       .  A
C96         H101   1.068       .  S
C97          C98   1.430       .  A
C98          N99   1.423       .  S
N99         O103   1.261   1_545  A
N99         O512   1.261   1_545  A
N102        O106   1.264       .  A
N102        O105   1.263       .  A
O104        N507   1.262       .  A
C107        C108   1.421       .  A
C107        C112   1.429       .  A
C107        H114   1.075       .  S
C108        C109   1.407       .  A
C109        C110   1.429       .  A
C109        N116   1.438       .  S
C110        C111   1.429       .  A
C110        H115   1.040       .  S
C111        C112   1.425       .  A
C112        N113   1.428       .  S
N113        O117   1.259       .  A
N113        O118   1.262       .  A
N116        O120   1.261       .  A
N116        O119   1.263       .  A
C121        C122   1.417       .  A
C121        C126   1.435       .  A
C121        H128   1.079       .  S
C122        C123   1.444       .  A
C123        C124   1.429       .  A
C123        N130   1.437       .  S
C124        C125   1.410       .  A
C124        H129   1.079       .  S
C125        C126   1.415       .  A
C126        N127   1.443       .  S
N127        O131   1.264       .  A
N127        O132   1.262       .  A
N130        O134   1.261       .  A
N130        O133   1.263       .  A
C135        C136   1.369       .  A
C135        C140   1.362       .  A
C135        H142   1.085       .  S
C136        C137   1.455       .  A
C137        C138   1.468       .  A
C137        N144   1.422       .  S
C138        C139   1.440       .  A
C138        H143   1.071       .  S
C139        C140   1.395       .  A
C140        N141   1.430       .  S
N141        O145   1.246       .  A
N141        O146   1.241       .  A
N144        O148   1.263       .  A
N144        O147   1.257       .  A
C149        C150   1.411       .  A
C149        C154   1.423       .  A
C149        H156   1.073       .  S
C150        C151   1.431       .  A
C151        C152   1.442       .  A
C151        N158   1.439       .  S
C152        C153   1.407       .  A
C152        H157   1.077       .  S
C153        C154   1.435       .  A
C154        N155   1.440       .  S
N155        O159   1.262       .  A
N155        O160   1.261       .  A
N158        O162   1.263       .  A
N158        O569   1.260       .  A
O161        N566   1.262       .  A
C163        C164   1.420       .  A
C163        C168   1.383       .  A
C163        H170   1.048       .  S
C164        C165   1.484       .  A
C165        C166   1.415       .  A
C165        N172   1.444       .  S
C166        C167   1.396       .  A
C166        H171   1.076       .  S
C167        C168   1.400       .  A
C168        N169   1.439       .  S
N169        O173   1.264       .  A
N169        O174   1.256       .  A
N172        O176   1.258       .  A
N172        O175   1.257       .  A
C177        C178   1.435       .  A
C177        C182   1.429       .  A
C177        H184   1.056       .  S
C178        C179   1.439       .  A
C179        C180   1.443       .  A
C179        N186   1.429       .  S
C180        C181   1.431       .  A
C180        H185   1.066       .  S
C181        C182   1.414       .  A
C182        N183   1.438       .  S
N183        O187   1.263       .  A
N183        O188   1.261       .  A
N186        O190   1.260       .  A
N186        O189   1.262       .  A
C191        C192   1.434       .  A
C191        C196   1.443       .  A
C191        H198   1.081       .  S
C192        C193   1.418       .  A
C193        C194   1.434       .  A
C193        N200   1.423       .  S
C194        C195   1.417       .  A
C194        H199   1.077       .  S
C195        C196   1.422       .  A
C196        N197   1.434       .  S
N197        O201   1.262       .  A
N197        O202   1.263       .  A
N200        O204   1.260       .  A
N200        O203   1.262       .  A
C205        C224   1.565       .  S
C205        C371   1.588       .  S
C205        C385   1.652       .  S
C205        C399   1.643       .  S
C206        C237   1.564       .  S
C206        C343   1.574       .  S
C206        C357   1.626       .  S
C206        C396   1.647       .  S
C207        C226   1.606       .  S
C207        C326   1.664       .  S
C207        C354   1.630       .  S
C207        C368   1.633       .  S
C208        C240   1.550       .  S
C208        C329   1.625       .  S
C208        C340   1.598       .  S
C208        C382   1.674       .  S
C209        C239   1.561       .  S
C209        C287   1.606       .  S
C209        C298   1.660       .  S
C209        C312   1.639       .  S
C210        C225   1.622       .  S
C210        C259   1.587       .  S
C210        C270   1.652       .  S
C210        C315   1.631       .  S
C211        C238   1.561       .  S
C211        C245   1.626       .  S
C211        C273   1.676       .  S
C211        C284   1.670       .  S
C212        C223   1.581       .  S
C212        C242   1.628       .  S
C212        C256   1.594       .  S
C212        C301   1.617       .  S
O213        C223   1.283       .  A
O213       Ni425   1.953   1_545  S
O214        C224   1.279       .  A
O214       Ni221   1.929       .  S
O215        C225   1.301       .  A
O216        C226   1.297       .  A
O216       Ni629   1.992   1_545  S
O217        C226   1.288       .  A
O217       Ni630   1.979   1_545  S
O218        C225   1.291       .  A
O219        C224   1.294       .  A
O219       Ni222   1.984       .  S
O220        C223   1.300       .  A
O220       Ni426   1.983   1_545  S
Ni221       O417   1.952   1_556  S
Ni221       O624   2.005       .  S
Ni221      Ni222   2.353       .  S
Ni222       O625   1.997       .  S
Ni222       O424   1.992   1_556  S
O227        C237   1.289       .  A
O227       Ni235   1.960       .  S
O228        C238   1.287       .  A
O228      Ni1051   1.961   1_455  S
O229        C239   1.285       .  A
O229       Ni235   1.941       .  S
O230        C240   1.279       .  A
O230      Ni1051   1.933   1_455  S
O231        C240   1.287       .  A
O231      Ni1052   1.957   1_455  S
O232        C239   1.289       .  A
O232       Ni236   1.967       .  S
O233        C238   1.285       .  A
O233      Ni1052   1.943   1_455  S
O234        C237   1.283       .  A
O234       Ni236   1.948       .  S
Ni235      O1044   1.949       .  S
Ni235      O1046   1.935       .  S
Ni235      Ni236   2.363       .  S
Ni236      O1047   1.962       .  S
Ni236      O1049   1.944       .  S
C241        C242   1.424       .  A
C241        C246   1.443       .  A
C241        H248   1.084       .  S
C242        C243   1.405       .  A
C243        C244   1.440       .  A
C243        N250   1.432   1_545  S
C244        C245   1.397       .  A
C244        H249   1.080       .  S
C245        C246   1.432       .  A
C246        N247   1.414       .  S
N247        O251   1.263       .  A
N247        O252   1.259       .  A
N250        O662   1.261       .  A
N250        O253   1.262       .  A
O254        N658   1.260       .  A
C255        C256   1.358       .  A
C255        C260   1.340       .  A
C255        H262   1.085       .  S
C256        C257   1.396       .  A
C257        C258   1.470       .  A
C258        C259   1.443       .  A
C258        H263   1.072       .  S
C259        C260   1.406       .  A
C260        N261   1.399       .  S
N261        O265   1.227       .  A
N261        O266   1.246       .  A
N264        O268   1.247       .  A
N264        O267   1.262       .  A
C269        C270   1.428       .  A
C269        C274   1.433       .  A
C269        H276   1.065       .  S
C270        C271   1.443       .  A
C271        C272   1.448       .  A
C271        N278   1.428       .  S
C272        C273   1.429       .  A
C272        H277   1.064       .  S
C273        C274   1.425       .  A
C274        N275   1.439       .  S
N275        O279   1.260       .  A
N275        O280   1.262       .  A
N278        O282   1.262       .  A
N278        O281   1.261       .  A
C283        C284   1.414       .  A
C283        C288   1.432       .  A
C283        H290   1.073       .  S
C284        C285   1.485       .  A
C285        C286   1.404       .  A
C285        N292   1.436       .  S
C286        C287   1.377       .  A
C286        H291   1.077       .  S
C287        C288   1.430       .  A
C288        N289   1.424       .  S
N289        O293   1.259       .  A
N289        O294   1.257       .  A
N292        O296   1.250       .  A
N292        O295   1.247       .  A
C297        C298   1.417       .  A
C297        C302   1.446       .  A
C297        H304   1.080       .  S
C298        C299   1.423       .  A
C299        C300   1.402       .  A
C299        N306   1.435       .  S
C300        C301   1.415       .  A
C300        H305   1.065       .  S
C301        C302   1.429       .  A
C302        N303   1.422       .  S
N303        O307   1.261   1_545  A
N303        O716   1.261   1_545  A
N306        O310   1.264       .  A
N306        O309   1.263       .  A
O308        N711   1.260       .  A
C311        C312   1.423       .  A
C311        C316   1.430       .  A
C311        H318   1.074       .  S
C312        C313   1.408       .  A
C313        C314   1.434       .  A
C313        N320   1.442       .  S
C314        C315   1.430       .  A
C314        H319   1.023       .  S
C315        C316   1.424       .  A
C316        N317   1.429       .  S
N317        O321   1.259       .  A
N317        O322   1.262       .  A
N320        O324   1.260       .  A
N320        O323   1.263       .  A
C325        C326   1.418       .  A
C325        C330   1.436       .  A
C325        H332   1.079       .  S
C326        C327   1.444       .  A
C327        C328   1.430       .  A
C327        N334   1.438       .  S
C328        C329   1.411       .  A
C328        H333   1.078       .  S
C329        C330   1.416       .  A
C330        N331   1.446       .  S
N331        O335   1.263       .  A
N331        O336   1.263       .  A
N334        O338   1.261       .  A
N334        O337   1.263       .  A
C339        C340   1.369       .  A
C339        C344   1.362       .  A
C339        H346   1.085       .  S
C340        C341   1.454       .  A
C341        C342   1.469       .  A
C341        N348   1.423       .  S
C342        C343   1.439       .  A
C342        H347   1.069       .  S
C343        C344   1.394       .  A
C344        N345   1.430       .  S
N345        O349   1.246       .  A
N345        O350   1.241       .  A
N348        O352   1.263       .  A
N348        O351   1.258       .  A
C353        C354   1.410       .  A
C353        C358   1.423       .  A
C353        H360   1.073       .  S
C354        C355   1.429       .  A
C355        C356   1.441       .  A
C355        N362   1.438       .  S
C356        C357   1.409       .  A
C356        H361   1.076       .  S
C357        C358   1.436       .  A
C358        N359   1.440       .  S
N359        O363   1.261       .  A
N359        O364   1.262       .  A
N362        O366   1.262       .  A
N362        O773   1.261       .  A
O365        N770   1.262       .  A
C367        C368   1.421       .  A
C367        C372   1.384       .  A
C367        H374   1.048       .  S
C368        C369   1.483       .  A
C369        C370   1.415       .  A
C369        N376   1.444       .  S
C370        C371   1.397       .  A
C370        H375   1.076       .  S
C371        C372   1.401       .  A
C372        N373   1.441       .  S
N373        O377   1.264       .  A
N373        O378   1.256       .  A
N376        O380   1.258       .  A
N376        O379   1.257       .  A
C381        C382   1.430       .  A
C381        C386   1.427       .  A
C381        H388   1.053       .  S
C382        C383   1.441       .  A
C383        C384   1.443       .  A
C383        N390   1.431       .  S
C384        C385   1.430       .  A
C384        H389   1.066       .  S
C385        C386   1.417       .  A
C386        N387   1.440       .  S
N387        O391   1.263       .  A
N387        O392   1.262       .  A
N390        O394   1.261       .  A
N390        O393   1.262       .  A
C395        C396   1.435       .  A
C395        C400   1.444       .  A
C395        H402   1.081       .  S
C396        C397   1.418       .  A
C397        C398   1.435       .  A
C397        N404   1.423       .  S
C398        C399   1.417       .  A
C398        H403   1.077       .  S
C399        C400   1.423       .  A
C400        N401   1.435       .  S
N401        O405   1.262       .  A
N401        O406   1.263       .  A
N404        O408   1.260       .  A
N404        O407   1.261       .  A
C409        C428   1.558       .  S
C409        C575   1.578       .  S
C409        C589   1.664       .  S
C409        C603   1.662       .  S
C410        C441   1.568       .  S
C410        C547   1.581       .  S
C410        C561   1.619       .  S
C410        C600   1.643       .  S
C411        C430   1.627       .  S
C411        C530   1.663       .  S
C411        C558   1.639       .  S
C411        C572   1.639       .  S
C412        C444   1.548       .  S
C412        C533   1.621       .  S
C412        C544   1.599       .  S
C412        C586   1.674       .  S
C413        C443   1.563       .  S
C413        C491   1.610       .  S
C413        C502   1.660       .  S
C413        C516   1.644       .  S
C414        C429   1.604       .  S
C414        C463   1.586       .  S
C414        C474   1.647       .  S
C414        C519   1.631       .  S
C415        C442   1.556       .  S
C415        C449   1.624       .  S
C415        C477   1.671       .  S
C415        C488   1.665       .  S
C416        C427   1.585       .  S
C416        C446   1.628       .  S
C416        C460   1.591       .  S
C416        C505   1.622       .  S
O417        C427   1.284       .  A
O418        C428   1.279       .  A
O418       Ni425   1.926       .  S
O419        C429   1.299       .  A
O419       Ni629   2.006   1_554  S
O420        C430   1.301       .  A
O421        C430   1.291       .  A
O422        C429   1.287       .  A
O422       Ni630   1.966   1_554  S
O423        C428   1.290       .  A
O423       Ni426   1.970       .  S
O424        C427   1.301       .  A
Ni425       O623   2.011       .  S
Ni425      Ni426   2.355       .  S
Ni426       O626   1.964       .  S
O431        C441   1.289       .  A
O431       Ni439   1.965       .  S
O432        C442   1.283       .  A
O432      Ni1255   1.946   1_455  S
O433        C443   1.283       .  A
O433       Ni439   1.938       .  S
O434        C444   1.276       .  A
O434      Ni1255   1.925   1_455  S
O435        C444   1.290       .  A
O435      Ni1256   1.961   1_455  S
O436        C443   1.290       .  A
O436       Ni440   1.971       .  S
O437        C442   1.286       .  A
O437      Ni1256   1.949   1_455  S
O438        C441   1.285       .  A
O438       Ni440   1.948       .  S
Ni439      O1248   1.946       .  S
Ni439      O1250   1.926       .  S
Ni439      Ni440   2.362       .  S
Ni440      O1251   1.965       .  S
Ni440      O1253   1.945       .  S
C445        C446   1.423       .  A
C445        C450   1.442       .  A
C445        H452   1.084       .  S
C446        C447   1.406       .  A
C447        C448   1.438       .  A
C447        N454   1.429       .  S
C448        C449   1.395       .  A
C448        H453   1.080       .  S
C449        C450   1.431       .  A
C450        N451   1.414       .  S
N451        O455   1.262       .  A
N451        O456   1.259       .  A
N454        O457   1.261       .  A
C459        C460   1.361       .  A
C459        C464   1.340       .  A
C459        H466   1.084       .  S
C460        C461   1.398       .  A
C461        C462   1.470       .  A
C461        N672   1.382   1_554  S
C462        C463   1.446       .  A
C462        H467   1.073       .  S
C463        C464   1.406       .  A
C464        N465   1.401       .  S
N465        O469   1.223       .  A
N465        O470   1.244       .  A
N468        C665   1.382       .  S
N468        O472   1.249       .  A
N468        O471   1.260       .  A
C473        C474   1.424       .  A
C473        C478   1.430       .  A
C473        H480   1.075       .  S
C474        C475   1.444       .  A
C475        C476   1.445       .  A
C475        N482   1.429       .  S
C476        C477   1.427       .  A
C476        H481   1.064       .  S
C477        C478   1.426       .  A
C478        N479   1.440       .  S
N479        O483   1.261       .  A
N479        O484   1.262       .  A
N482        O486   1.261       .  A
N482        O485   1.261       .  A
C487        C488   1.408       .  A
C487        C492   1.429       .  A
C487        H494   1.073       .  S
C488        C489   1.482       .  A
C489        C490   1.404       .  A
C489        N496   1.437       .  S
C490        C491   1.381       .  A
C490        H495   1.076       .  S
C491        C492   1.429       .  A
C492        N493   1.420       .  S
N493        O497   1.259       .  A
N493        O498   1.254       .  A
N496        O500   1.249       .  A
N496        O499   1.252       .  A
C501        C502   1.416       .  A
C501        C506   1.446       .  A
C501        H508   1.080       .  S
C502        C503   1.425       .  A
C503        C504   1.403       .  A
C503        N510   1.434       .  S
C504        C505   1.413       .  A
C504        H509   1.065       .  S
C505        C506   1.430       .  A
C506        N507   1.421       .  S
N507        O511   1.261       .  A
N510        O514   1.264       .  A
N510        O513   1.263       .  A
C515        C516   1.425       .  A
C515        C520   1.435       .  A
C515        H522   1.075       .  S
C516        C517   1.408       .  A
C517        C518   1.428       .  A
C517        N524   1.441       .  S
C518        C519   1.424       .  A
C518        H523   1.052       .  S
C519        C520   1.429       .  A
C520        N521   1.428       .  S
N521        O525   1.260       .  A
N521        O526   1.262       .  A
N524        O528   1.261       .  A
N524        O527   1.263       .  A
C529        C530   1.416       .  A
C529        C534   1.438       .  A
C529        H536   1.081       .  S
C530        C531   1.440       .  A
C531        C532   1.429       .  A
C531        N538   1.438       .  S
C532        C533   1.415       .  A
C532        H537   1.075       .  S
C533        C534   1.417       .  A
C534        N535   1.440       .  S
N535        O539   1.262       .  A
N535        O540   1.264       .  A
N538        O542   1.262       .  A
N538        O541   1.263       .  A
C543        C544   1.370       .  A
C543        C548   1.365       .  A
C543        H550   1.086       .  S
C544        C545   1.453       .  A
C545        C546   1.466       .  A
C545        N552   1.420       .  S
C546        C547   1.443       .  A
C546        H551   1.068       .  S
C547        C548   1.399       .  A
C548        N549   1.432       .  S
N549        O553   1.248       .  A
N549        O554   1.241       .  A
N552        O556   1.262       .  A
N552        O555   1.256       .  A
C557        C558   1.425       .  A
C557        C562   1.422       .  A
C557        H564   1.067       .  S
C558        C559   1.434       .  A
C559        C560   1.449       .  A
C559        N566   1.439       .  S
C560        C561   1.410       .  A
C560        H565   1.080       .  S
C561        C562   1.415       .  A
C562        N563   1.434       .  S
N563        O567   1.259       .  A
N563        O568   1.262       .  A
N566        O570   1.262       .  A
C571        C572   1.421       .  A
C571        C576   1.383       .  A
C571        H578   1.053       .  S
C572        C573   1.484       .  A
C573        C574   1.414       .  A
C573        N580   1.445       .  S
C574        C575   1.394       .  A
C574        H579   1.072       .  S
C575        C576   1.402       .  A
C576        N577   1.438       .  S
N577        O581   1.264       .  A
N577        O582   1.257       .  A
N580        O584   1.258       .  A
N580        O583   1.258       .  A
C585        C586   1.427       .  A
C585        C590   1.442       .  A
C585        H592   1.080       .  S
C586        C587   1.445       .  A
C587        C588   1.447       .  A
C587        N594   1.435       .  S
C588        C589   1.427       .  A
C588        H593   1.071       .  S
C589        C590   1.430       .  A
C590        N591   1.438       .  S
N591        O595   1.263       .  A
N591        O596   1.261       .  A
N594        O598   1.262       .  A
N594        O597   1.262       .  A
C599        C600   1.411       .  A
C599        C604   1.441       .  A
C599        H606   1.077       .  S
C600        C601   1.447       .  A
C601        C602   1.434       .  A
C601        N608   1.427       .  S
C602        C603   1.410       .  A
C602        H607   1.073       .  S
C603        C604   1.448       .  A
C604        N605   1.439       .  S
N605        O609   1.260       .  A
N605        O610   1.262       .  A
N608        O612   1.262       .  A
N608        O611   1.263       .  A
C613        C632   1.558       .  S
C613        C779   1.579       .  S
C613        C793   1.665       .  S
C613        C807   1.659       .  S
C614        C645   1.565       .  S
C614        C751   1.579       .  S
C614        C765   1.620       .  S
C614        C804   1.644       .  S
C615        C634   1.626       .  S
C615        C734   1.664       .  S
C615        C762   1.640       .  S
C615        C776   1.638       .  S
C616        C648   1.550       .  S
C616        C737   1.621       .  S
C616        C748   1.600       .  S
C616        C790   1.673       .  S
C617        C647   1.565       .  S
C617        C695   1.606       .  S
C617        C706   1.659       .  S
C617        C720   1.645       .  S
C618        C633   1.606       .  S
C618        C667   1.584       .  S
C618        C678   1.646       .  S
C618        C723   1.634       .  S
C619        C646   1.552       .  S
C619        C653   1.623       .  S
C619        C681   1.671       .  S
C619        C692   1.665       .  S
C620        C631   1.581       .  S
C620        C650   1.627       .  S
C620        C664   1.591       .  S
C620        C709   1.621       .  S
O621        C631   1.284       .  A
O622        C632   1.279       .  A
O622       Ni629   1.926       .  S
O623        C633   1.300       .  A
O624        C634   1.300       .  A
O625        C634   1.292       .  A
O626        C633   1.286       .  A
O627        C632   1.289       .  A
O627       Ni630   1.970       .  S
O628        C631   1.299       .  A
Ni629      Ni630   2.355       .  S
O635        C645   1.288       .  A
O635       Ni643   1.961       .  S
O636        C646   1.285       .  A
O636      Ni1459   1.949   1_455  S
O637        C647   1.283       .  A
O637       Ni643   1.939       .  S
O638        C648   1.276       .  A
O638      Ni1459   1.928   1_455  S
O639        C648   1.289       .  A
O639      Ni1460   1.962       .  S
O640        C647   1.291       .  A
O640       Ni644   1.973       .  S
O641        C646   1.283       .  A
O641      Ni1460   1.939       .  S
O642        C645   1.285       .  A
O642       Ni644   1.947       .  S
Ni643      O1452   1.946       .  S
Ni643      O1454   1.926       .  S
Ni643      Ni644   2.362       .  S
Ni644      O1455   1.967       .  S
Ni644      O1457   1.946       .  S
C649        C650   1.421       .  A
C649        C654   1.442       .  A
C649        H656   1.084       .  S
C650        C651   1.406       .  A
C651        C652   1.438       .  A
C651        N658   1.429       .  S
C652        C653   1.394       .  A
C652        H657   1.080       .  S
C653        C654   1.430       .  A
C654        N655   1.412       .  S
N655        O659   1.262       .  A
N655        O660   1.259       .  A
N658        O661   1.261       .  A
C663        C664   1.360       .  A
C663        C668   1.340       .  A
C663        H670   1.085       .  S
C664        C665   1.398       .  A
C665        C666   1.470       .  A
C666        C667   1.446       .  A
C666        H671   1.073       .  S
C667        C668   1.405       .  A
C668        N669   1.402       .  S
N669        O673   1.224       .  A
N669        O674   1.245       .  A
N672        O676   1.249       .  A
N672        O675   1.260       .  A
C677        C678   1.424       .  A
C677        C682   1.430       .  A
C677        H684   1.062       .  S
C678        C679   1.444       .  A
C679        C680   1.445       .  A
C679        N686   1.430       .  S
C680        C681   1.427       .  A
C680        H685   1.064       .  S
C681        C682   1.427       .  A
C682        N683   1.440       .  S
N683        O687   1.260       .  A
N683        O688   1.262       .  A
N686        O690   1.262       .  A
N686        O689   1.261       .  A
C691        C692   1.408       .  A
C691        C696   1.428       .  A
C691        H698   1.074       .  S
C692        C693   1.484       .  A
C693        C694   1.403       .  A
C693        N700   1.437       .  S
C694        C695   1.378       .  A
C694        H699   1.077       .  S
C695        C696   1.428       .  A
C696        N697   1.419       .  S
N697        O701   1.259       .  A
N697        O702   1.254       .  A
N700        O704   1.250       .  A
N700        O703   1.250       .  A
C705        C706   1.417       .  A
C705        C710   1.446       .  A
C705        H712   1.080       .  S
C706        C707   1.423       .  A
C707        C708   1.403       .  A
C707        N714   1.434       .  S
C708        C709   1.415       .  A
C708        H713   1.064       .  S
C709        C710   1.429       .  A
C710        N711   1.420       .  S
N711        O715   1.261       .  A
N714        O718   1.264       .  A
N714        O717   1.263       .  A
C719        C720   1.426       .  A
C719        C724   1.435       .  A
C719        H726   1.073       .  S
C720        C721   1.408       .  A
C721        C722   1.435       .  A
C721        N728   1.442       .  S
C722        C723   1.431       .  A
C722        H727   0.983       .  S
C723        C724   1.426       .  A
C724        N725   1.429       .  S
N725        O729   1.260       .  A
N725        O730   1.262       .  A
N728        O732   1.260       .  A
N728        O731   1.263       .  A
C733        C734   1.417       .  A
C733        C738   1.438       .  A
C733        H740   1.081       .  S
C734        C735   1.441       .  A
C735        C736   1.429       .  A
C735        N742   1.438       .  S
C736        C737   1.414       .  A
C736        H741   1.076       .  S
C737        C738   1.417       .  A
C738        N739   1.441       .  S
N739        O743   1.262       .  A
N739        O744   1.264       .  A
N742        O746   1.261       .  A
N742        O745   1.263       .  A
C747        C748   1.371       .  A
C747        C752   1.366       .  A
C747        H754   1.086       .  S
C748        C749   1.453       .  A
C749        C750   1.467       .  A
C749        N756   1.421       .  S
C750        C751   1.442       .  A
C750        H755   1.068       .  S
C751        C752   1.397       .  A
C752        N753   1.432       .  S
N753        O757   1.247       .  A
N753        O758   1.241       .  A
N756        O760   1.263       .  A
N756        O759   1.257       .  A
C761        C762   1.426       .  A
C761        C766   1.422       .  A
C761        H768   1.066       .  S
C762        C763   1.433       .  A
C763        C764   1.449       .  A
C763        N770   1.440       .  S
C764        C765   1.411       .  A
C764        H769   1.080       .  S
C765        C766   1.415       .  A
C766        N767   1.434       .  S
N767        O771   1.259       .  A
N767        O772   1.262       .  A
N770        O774   1.262       .  A
C775        C776   1.420       .  A
C775        C780   1.382       .  A
C775        H782   1.050       .  S
C776        C777   1.484       .  A
C777        C778   1.415       .  A
C777        N784   1.446       .  S
C778        C779   1.395       .  A
C778        H783   1.072       .  S
C779        C780   1.400       .  A
C780        N781   1.438       .  S
N781        O785   1.264       .  A
N781        O786   1.256       .  A
N784        O788   1.258       .  A
N784        O787   1.259       .  A
C789        C790   1.425       .  A
C789        C794   1.441       .  A
C789        H796   1.079       .  S
C790        C791   1.445       .  A
C791        C792   1.447       .  A
C791        N798   1.435       .  S
C792        C793   1.426       .  A
C792        H797   1.071       .  S
C793        C794   1.432       .  A
C794        N795   1.438       .  S
N795        O799   1.263       .  A
N795        O800   1.261       .  A
N798        O802   1.262       .  A
N798        O801   1.262       .  A
C803        C804   1.411       .  A
C803        C808   1.441       .  A
C803        H810   1.077       .  S
C804        C805   1.447       .  A
C805        C806   1.433       .  A
C805        N812   1.427       .  S
C806        C807   1.408       .  A
C806        H811   1.074       .  S
C807        C808   1.448       .  A
C808        N809   1.439       .  S
N809        O813   1.260       .  A
N809        O814   1.262       .  A
N812        O816   1.262       .  A
N812        O815   1.263       .  A
C817        C836   1.566       .  S
C817        C983   1.590       .  S
C817        C997   1.640       .  S
C817       C1011   1.650       .  S
C818        C849   1.568       .  S
C818        C955   1.578       .  S
C818        C969   1.624       .  S
C818       C1008   1.644       .  S
C819        C838   1.606       .  S
C819        C938   1.665       .  S
C819        C966   1.629       .  S
C819        C980   1.637       .  S
C820        C852   1.552       .  S
C820        C941   1.622       .  S
C820        C952   1.598       .  S
C820        C994   1.676       .  S
C821        C851   1.559       .  S
C821        C899   1.610       .  S
C821        C910   1.665       .  S
C821        C924   1.639       .  S
C822        C837   1.619       .  S
C822        C871   1.587       .  S
C822        C882   1.648       .  S
C822        C927   1.629       .  S
C823        C850   1.557       .  S
C823        C857   1.626       .  S
C823        C885   1.673       .  S
C823        C896   1.673       .  S
C824        C835   1.584       .  S
C824        C854   1.628       .  S
C824        C868   1.594       .  S
C824        C913   1.619       .  S
O825        C835   1.284       .  A
O825      Ni1445   1.956   1_544  S
O826        C836   1.283       .  A
O826       Ni833   1.937       .  S
O827        C837   1.300       .  A
O827      Ni1037   2.017   1_554  S
O828        C838   1.297       .  A
O828      Ni1241   1.992   1_545  S
O829        C838   1.287       .  A
O829      Ni1242   1.978   1_545  S
O830        C837   1.291       .  A
O830      Ni1038   1.978   1_554  S
O831        C836   1.293       .  A
O831       Ni834   1.980       .  S
O832        C835   1.300       .  A
O832      Ni1446   1.986   1_544  S
Ni833      O1437   1.953       .  S
Ni833      O1031   2.022       .  S
Ni833      O1236   2.004       .  S
Ni833      Ni834   2.353       .  S
Ni834      O1237   1.995       .  S
Ni834      O1034   1.983       .  S
Ni834      O1444   1.983       .  S
O839        C849   1.291       .  A
O839       Ni847   1.966       .  S
O840        C850   1.285       .  A
O841        C851   1.287       .  A
O841       Ni847   1.943       .  S
O842        C852   1.280       .  A
O843        C852   1.289       .  A
O844        C851   1.289       .  A
O844       Ni848   1.964       .  S
O845        C850   1.285       .  A
O846        C849   1.282       .  A
O846       Ni848   1.947       .  S
Ni847      Ni848   2.364       .  S
C853        C854   1.424       .  A
C853        C858   1.444       .  A
C853        H860   1.084       .  S
C854        C855   1.406       .  A
C855        C856   1.438       .  A
C855        N862   1.431   1_545  S
C856        C857   1.395       .  A
C856        H861   1.080       .  S
C857        C858   1.432       .  A
C858        N859   1.414       .  S
N859        O863   1.262       .  A
N859        O864   1.259       .  A
N862       O1274   1.261       .  A
N862        O865   1.261       .  A
O866       N1270   1.261       .  A
C867        C868   1.358       .  A
C867        C872   1.339       .  A
C867        H874   1.085       .  S
C868        C869   1.395       .  A
C869        C870   1.469       .  A
C869       N1080   1.373   1_554  S
C870        C871   1.440       .  A
C870        H875   1.070       .  S
C871        C872   1.411       .  A
C872        N873   1.396       .  S
N873        O877   1.222       .  A
N873        O878   1.246       .  A
N876       C1073   1.376       .  S
N876        O880   1.248       .  A
N876        O879   1.261       .  A
C881        C882   1.425       .  A
C881        C886   1.427       .  A
C881        H888   1.068       .  S
C882        C883   1.444       .  A
C883        C884   1.449       .  A
C883        N890   1.427       .  S
C884        C885   1.429       .  A
C884        H889   1.065       .  S
C885        C886   1.424       .  A
C886        N887   1.440       .  S
N887        O891   1.260       .  A
N887        O892   1.262       .  A
N890        O894   1.262       .  A
N890        O893   1.261       .  A
C895        C896   1.412       .  A
C895        C900   1.432       .  A
C895        H902   1.073       .  S
C896        C897   1.486       .  A
C897        C898   1.405       .  A
C897        N904   1.436       .  S
C898        C899   1.379       .  A
C898        H903   1.077       .  S
C899        C900   1.430       .  A
C900        N901   1.423       .  S
N901        O905   1.259       .  A
N901        O906   1.257       .  A
N904        O908   1.249       .  A
N904        O907   1.249       .  A
C909        C910   1.418       .  A
C909        C914   1.448       .  A
C909        H916   1.080       .  S
C910        C911   1.427       .  A
C911        C912   1.407       .  A
C911        N918   1.436       .  S
C912        C913   1.415       .  A
C912        H917   1.069       .  S
C913        C914   1.432       .  A
C914        N915   1.424       .  S
N915        O919   1.261   1_545  A
N915       O1328   1.262   1_545  A
N918        O922   1.263       .  A
N918        O921   1.263       .  A
O920       N1323   1.262       .  A
C923        C924   1.424       .  A
C923        C928   1.430       .  A
C923        H930   1.073       .  S
C924        C925   1.404       .  A
C925        C926   1.428       .  A
C925        N932   1.437       .  S
C926        C927   1.429       .  A
C926        H931   1.042       .  S
C927        C928   1.427       .  A
C928        N929   1.428       .  S
N929        O933   1.260       .  A
N929        O934   1.262       .  A
N932        O936   1.260       .  A
N932        O935   1.263       .  A
C937        C938   1.418       .  A
C937        C942   1.436       .  A
C937        H944   1.078       .  S
C938        C939   1.447       .  A
C939        C940   1.430       .  A
C939        N946   1.438       .  S
C940        C941   1.409       .  A
C940        H945   1.080       .  S
C941        C942   1.414       .  A
C942        N943   1.445       .  S
N943        O947   1.263       .  A
N943        O948   1.262       .  A
N946        O950   1.260       .  A
N946        O949   1.263       .  A
C951        C952   1.368       .  A
C951        C956   1.361       .  A
C951        H958   1.085       .  S
C952        C953   1.457       .  A
C953        C954   1.469       .  A
C953        N960   1.423       .  S
C954        C955   1.437       .  A
C954        H959   1.069       .  S
C955        C956   1.395       .  A
C956        N957   1.427       .  S
N957        O961   1.246       .  A
N957        O962   1.241       .  A
N960        O964   1.263       .  A
N960        O963   1.257       .  A
C965        C966   1.410       .  A
C965        C970   1.423       .  A
C965        H972   1.073       .  S
C966        C967   1.431       .  A
C967        C968   1.442       .  A
C967        N974   1.440       .  S
C968        C969   1.408       .  A
C968        H973   1.076       .  S
C969        C970   1.435       .  A
C970        N971   1.440       .  S
N971        O975   1.262       .  A
N971        O976   1.261       .  A
N974        O978   1.262       .  A
N974       O1385   1.261       .  A
O977       N1382   1.262       .  A
C979        C980   1.420       .  A
C979        C984   1.384       .  A
C979        H986   1.048       .  S
C980        C981   1.485       .  A
C981        C982   1.416       .  A
C981        N988   1.443       .  S
C982        C983   1.396       .  A
C982        H987   1.076       .  S
C983        C984   1.404       .  A
C984        N985   1.440       .  S
N985        O989   1.264       .  A
N985        O990   1.256       .  A
N988        O992   1.258       .  A
N988        O991   1.257       .  A
C993        C994   1.435       .  A
C993        C998   1.427       .  A
C993       H1000   1.056       .  S
C994        C995   1.443       .  A
C995        C996   1.441       .  A
C995       N1002   1.428       .  S
C996        C997   1.422       .  A
C996       H1001   1.067       .  S
C997        C998   1.412       .  A
C998        N999   1.439       .  S
N999       O1003   1.263       .  A
N999       O1004   1.261       .  A
N1002      O1006   1.260       .  A
N1002      O1005   1.262       .  A
C1007      C1008   1.427       .  A
C1007      C1012   1.438       .  A
C1007      H1014   1.081       .  S
C1008      C1009   1.421       .  A
C1009      C1010   1.437       .  A
C1009      N1016   1.424       .  S
C1010      C1011   1.417       .  A
C1010      H1015   1.077       .  S
C1011      C1012   1.434       .  A
C1012      N1013   1.428       .  S
N1013      O1017   1.264       .  A
N1013      O1018   1.260       .  A
N1016      O1020   1.260       .  A
N1016      O1019   1.262       .  A
C1021      C1040   1.562       .  S
C1021      C1187   1.586       .  S
C1021      C1201   1.647       .  S
C1021      C1215   1.637       .  S
C1022      C1053   1.571       .  S
C1022      C1159   1.573       .  S
C1022      C1173   1.630       .  S
C1022      C1212   1.644       .  S
C1023      C1042   1.608       .  S
C1023      C1142   1.665       .  S
C1023      C1170   1.636       .  S
C1023      C1184   1.631       .  S
C1024      C1056   1.554       .  S
C1024      C1145   1.626       .  S
C1024      C1156   1.600       .  S
C1024      C1198   1.674       .  S
C1025      C1055   1.558       .  S
C1025      C1103   1.607       .  S
C1025      C1114   1.660       .  S
C1025      C1128   1.636       .  S
C1026      C1041   1.626       .  S
C1026      C1075   1.586       .  S
C1026      C1086   1.657       .  S
C1026      C1131   1.627       .  S
C1027      C1054   1.555       .  S
C1027      C1061   1.624       .  S
C1027      C1089   1.674       .  S
C1027      C1100   1.668       .  S
C1028      C1039   1.580       .  S
C1028      C1058   1.628       .  S
C1028      C1072   1.593       .  S
C1028      C1117   1.619       .  S
O1029      C1039   1.283       .  A
O1029     Ni1241   1.951   1_545  S
O1030      C1040   1.282       .  A
O1030     Ni1037   1.935       .  S
O1031      C1041   1.301       .  A
O1032      C1042   1.297       .  A
O1032     Ni1445   1.994   1_545  S
O1033      C1042   1.289       .  A
O1033     Ni1446   1.980   1_545  S
O1034      C1041   1.292       .  A
O1035      C1040   1.292       .  A
O1035     Ni1038   1.976       .  S
O1036      C1039   1.300       .  A
O1036     Ni1242   1.984   1_545  S
Ni1037     O1233   1.960   1_556  S
Ni1037     O1440   2.008       .  S
Ni1037    Ni1038   2.354       .  S
Ni1038     O1441   1.998       .  S
Ni1038     O1240   1.985   1_556  S
O1043      C1053   1.293       .  A
O1043     Ni1051   1.971       .  S
O1044      C1054   1.284       .  A
O1045      C1055   1.286       .  A
O1045     Ni1051   1.943       .  S
O1046      C1056   1.281       .  A
O1047      C1056   1.289       .  A
O1048      C1055   1.290       .  A
O1048     Ni1052   1.965       .  S
O1049      C1054   1.285       .  A
O1050      C1053   1.282       .  A
O1050     Ni1052   1.948       .  S
Ni1051    Ni1052   2.363       .  S
C1057      C1058   1.422       .  A
C1057      C1062   1.442       .  A
C1057      H1064   1.084       .  S
C1058      C1059   1.405       .  A
C1059      C1060   1.438       .  A
C1059      N1066   1.430   1_545  S
C1060      C1061   1.395       .  A
C1060      H1065   1.080       .  S
C1061      C1062   1.432       .  A
C1062      N1063   1.414       .  S
N1063      O1067   1.263       .  A
N1063      O1068   1.259       .  A
N1066      O1478   1.260       .  A
N1066      O1069   1.261       .  A
O1070      N1474   1.260       .  A
C1071      C1072   1.359       .  A
C1071      C1076   1.340       .  A
C1071      H1078   1.086       .  S
C1072      C1073   1.397       .  A
C1073      C1074   1.469       .  A
C1074      C1075   1.444       .  A
C1074      H1079   1.074       .  S
C1075      C1076   1.407       .  A
C1076      N1077   1.400       .  S
N1077      O1081   1.226       .  A
N1077      O1082   1.246       .  A
N1080      O1084   1.245       .  A
N1080      O1083   1.263       .  A
C1085      C1086   1.430       .  A
C1085      C1090   1.424       .  A
C1085      H1092   1.066       .  S
C1086      C1087   1.440       .  A
C1087      C1088   1.449       .  A
C1087      N1094   1.427       .  S
C1088      C1089   1.431       .  A
C1088      H1093   1.065       .  S
C1089      C1090   1.423       .  A
C1090      N1091   1.441       .  S
N1091      O1095   1.261       .  A
N1091      O1096   1.261       .  A
N1094      O1098   1.262       .  A
N1094      O1097   1.261       .  A
C1099      C1100   1.413       .  A
C1099      C1104   1.431       .  A
C1099      H1106   1.075       .  S
C1100      C1101   1.486       .  A
C1101      C1102   1.404       .  A
C1101      N1108   1.436       .  S
C1102      C1103   1.377       .  A
C1102      H1107   1.077       .  S
C1103      C1104   1.430       .  A
C1104      N1105   1.423       .  S
N1105      O1109   1.259       .  A
N1105      O1110   1.258       .  A
N1108      O1112   1.250       .  A
N1108      O1111   1.248       .  A
C1113      C1114   1.417       .  A
C1113      C1118   1.447       .  A
C1113      H1120   1.079       .  S
C1114      C1115   1.424       .  A
C1115      C1116   1.402       .  A
C1115      N1122   1.435       .  S
C1116      C1117   1.415       .  A
C1116      H1121   1.065       .  S
C1117      C1118   1.429       .  A
C1118      N1119   1.422       .  S
N1119      O1123   1.261   1_545  A
N1119      O1532   1.261   1_545  A
N1122      O1126   1.264       .  A
N1122      O1125   1.263       .  A
O1124      N1527   1.262       .  A
C1127      C1128   1.422       .  A
C1127      C1132   1.428       .  A
C1127      H1134   1.073       .  S
C1128      C1129   1.408       .  A
C1129      C1130   1.430       .  A
C1129      N1136   1.438       .  S
C1130      C1131   1.426       .  A
C1130      H1135   1.041       .  S
C1131      C1132   1.424       .  A
C1132      N1133   1.428       .  S
N1133      O1137   1.259       .  A
N1133      O1138   1.262       .  A
N1136      O1140   1.260       .  A
N1136      O1139   1.263       .  A
C1141      C1142   1.418       .  A
C1141      C1146   1.436       .  A
C1141      H1148   1.078       .  S
C1142      C1143   1.446       .  A
C1143      C1144   1.432       .  A
C1143      N1150   1.438       .  S
C1144      C1145   1.411       .  A
C1144      H1149   1.079       .  S
C1145      C1146   1.416       .  A
C1146      N1147   1.446       .  S
N1147      O1151   1.263       .  A
N1147      O1152   1.263       .  A
N1150      O1154   1.260       .  A
N1150      O1153   1.263       .  A
C1155      C1156   1.369       .  A
C1155      C1160   1.362       .  A
C1155      H1162   1.085       .  S
C1156      C1157   1.454       .  A
C1157      C1158   1.470       .  A
C1157      N1164   1.424       .  S
C1158      C1159   1.440       .  A
C1158      H1163   1.069       .  S
C1159      C1160   1.393       .  A
C1160      N1161   1.430       .  S
N1161      O1165   1.246       .  A
N1161      O1166   1.242       .  A
N1164      O1168   1.263       .  A
N1164      O1167   1.258       .  A
C1169      C1170   1.412       .  A
C1169      C1174   1.425       .  A
C1169      H1176   1.073       .  S
C1170      C1171   1.431       .  A
C1171      C1172   1.443       .  A
C1171      N1178   1.440       .  S
C1172      C1173   1.412       .  A
C1172      H1177   1.076       .  S
C1173      C1174   1.436       .  A
C1174      N1175   1.440       .  S
N1175      O1179   1.261       .  A
N1175      O1180   1.262       .  A
N1178      O1182   1.263       .  A
N1178      O1589   1.261       .  A
O1181      N1586   1.262       .  A
C1183      C1184   1.422       .  A
C1183      C1188   1.384       .  A
C1183      H1190   1.046       .  S
C1184      C1185   1.480       .  A
C1185      C1186   1.415       .  A
C1185      N1192   1.444       .  S
C1186      C1187   1.397       .  A
C1186      H1191   1.076       .  S
C1187      C1188   1.400       .  A
C1188      N1189   1.442       .  S
N1189      O1193   1.264       .  A
N1189      O1194   1.257       .  A
N1192      O1196   1.258       .  A
N1192      O1195   1.257       .  A
C1197      C1198   1.432       .  A
C1197      C1202   1.427       .  A
C1197      H1204   1.054       .  S
C1198      C1199   1.441       .  A
C1199      C1200   1.444       .  A
C1199      N1206   1.430       .  S
C1200      C1201   1.432       .  A
C1200      H1205   1.070       .  S
C1201      C1202   1.413       .  A
C1202      N1203   1.439       .  S
N1203      O1207   1.264       .  A
N1203      O1208   1.261       .  A
N1206      O1210   1.260       .  A
N1206      O1209   1.262       .  A
C1211      C1212   1.434       .  A
C1211      C1216   1.443       .  A
C1211      H1218   1.081       .  S
C1212      C1213   1.417       .  A
C1213      C1214   1.435       .  A
C1213      N1220   1.423       .  S
C1214      C1215   1.419       .  A
C1214      H1219   1.077       .  S
C1215      C1216   1.416       .  A
C1216      N1217   1.431       .  S
N1217      O1221   1.261       .  A
N1217      O1222   1.263       .  A
N1220      O1224   1.260       .  A
N1220      O1223   1.261       .  A
C1225      C1244   1.560       .  S
C1225      C1391   1.577       .  S
C1225      C1405   1.664       .  S
C1225      C1419   1.659       .  S
C1226      C1257   1.565       .  S
C1226      C1363   1.580       .  S
C1226      C1377   1.621       .  S
C1226      C1416   1.645       .  S
C1227      C1246   1.624       .  S
C1227      C1346   1.665       .  S
C1227      C1374   1.637       .  S
C1227      C1388   1.637       .  S
C1228      C1260   1.552       .  S
C1228      C1349   1.621       .  S
C1228      C1360   1.601       .  S
C1228      C1402   1.676       .  S
C1229      C1259   1.558       .  S
C1229      C1307   1.609       .  S
C1229      C1318   1.660       .  S
C1229      C1332   1.641       .  S
C1230      C1245   1.602       .  S
C1230      C1279   1.584       .  S
C1230      C1290   1.646       .  S
C1230      C1335   1.628       .  S
C1231      C1258   1.554       .  S
C1231      C1265   1.623       .  S
C1231      C1293   1.669       .  S
C1231      C1304   1.666       .  S
C1232      C1243   1.584       .  S
C1232      C1262   1.628       .  S
C1232      C1276   1.590       .  S
C1232      C1321   1.625       .  S
O1233      C1243   1.287       .  A
O1234      C1244   1.279       .  A
O1234     Ni1241   1.925       .  S
O1235      C1245   1.298       .  A
O1235     Ni1445   2.004   1_554  S
O1236      C1246   1.300       .  A
O1237      C1246   1.291       .  A
O1238      C1245   1.287       .  A
O1238     Ni1446   1.965   1_554  S
O1239      C1244   1.291       .  A
O1239     Ni1242   1.974       .  S
O1240      C1243   1.298       .  A
Ni1241     O1439   2.005       .  S
Ni1241    Ni1242   2.355       .  S
Ni1242     O1442   1.967       .  S
O1247      C1257   1.288       .  A
O1247     Ni1255   1.961       .  S
O1248      C1258   1.284       .  A
O1249      C1259   1.284       .  A
O1249     Ni1255   1.935       .  S
O1250      C1260   1.276       .  A
O1251      C1260   1.291       .  A
O1252      C1259   1.289       .  A
O1252     Ni1256   1.968       .  S
O1253      C1258   1.284       .  A
O1254      C1257   1.285       .  A
O1254     Ni1256   1.948       .  S
Ni1255    Ni1256   2.363       .  S
C1261      C1262   1.421       .  A
C1261      C1266   1.441       .  A
C1261      H1268   1.084       .  S
C1262      C1263   1.407       .  A
C1263      C1264   1.439       .  A
C1263      N1270   1.429       .  S
C1264      C1265   1.396       .  A
C1264      H1269   1.080       .  S
C1265      C1266   1.429       .  A
C1266      N1267   1.412       .  S
N1267      O1271   1.262       .  A
N1267      O1272   1.259       .  A
N1270      O1273   1.261       .  A
C1275      C1276   1.362       .  A
C1275      C1280   1.341       .  A
C1275      H1282   1.086       .  S
C1276      C1277   1.400       .  A
C1277      C1278   1.469       .  A
C1277      N1488   1.382   1_554  S
C1278      C1279   1.445       .  A
C1278      H1283   1.073       .  S
C1279      C1280   1.407       .  A
C1280      N1281   1.404       .  S
N1281      O1285   1.223       .  A
N1281      O1286   1.244       .  A
N1284      C1481   1.381       .  S
N1284      O1288   1.250       .  A
N1284      O1287   1.260       .  A
C1289      C1290   1.424       .  A
C1289      C1294   1.428       .  A
C1289      H1296   1.073       .  S
C1290      C1291   1.445       .  A
C1291      C1292   1.445       .  A
C1291      N1298   1.428       .  S
C1292      C1293   1.426       .  A
C1292      H1297   1.066       .  S
C1293      C1294   1.424       .  A
C1294      N1295   1.440       .  S
N1295      O1299   1.260       .  A
N1295      O1300   1.262       .  A
N1298      O1302   1.262       .  A
N1298      O1301   1.261       .  A
C1303      C1304   1.407       .  A
C1303      C1308   1.429       .  A
C1303      H1310   1.073       .  S
C1304      C1305   1.483       .  A
C1305      C1306   1.404       .  A
C1305      N1312   1.438       .  S
C1306      C1307   1.381       .  A
C1306      H1311   1.077       .  S
C1307      C1308   1.430       .  A
C1308      N1309   1.419       .  S
N1309      O1313   1.259       .  A
N1309      O1314   1.254       .  A
N1312      O1316   1.250       .  A
N1312      O1315   1.252       .  A
C1317      C1318   1.417       .  A
C1317      C1322   1.446       .  A
C1317      H1324   1.080       .  S
C1318      C1319   1.423       .  A
C1319      C1320   1.407       .  A
C1319      N1326   1.435       .  S
C1320      C1321   1.417       .  A
C1320      H1325   1.064       .  S
C1321      C1322   1.430       .  A
C1322      N1323   1.421       .  S
N1323      O1327   1.261       .  A
N1326      O1330   1.264       .  A
N1326      O1329   1.263       .  A
C1331      C1332   1.425       .  A
C1331      C1336   1.433       .  A
C1331      H1338   1.074       .  S
C1332      C1333   1.407       .  A
C1333      C1334   1.426       .  A
C1333      N1340   1.439       .  S
C1334      C1335   1.423       .  A
C1334      H1339   1.045       .  S
C1335      C1336   1.430       .  A
C1336      N1337   1.429       .  S
N1337      O1341   1.260       .  A
N1337      O1342   1.262       .  A
N1340      O1344   1.261       .  A
N1340      O1343   1.263       .  A
C1345      C1346   1.416       .  A
C1345      C1350   1.438       .  A
C1345      H1352   1.081       .  S
C1346      C1347   1.440       .  A
C1347      C1348   1.429       .  A
C1347      N1354   1.438       .  S
C1348      C1349   1.415       .  A
C1348      H1353   1.075       .  S
C1349      C1350   1.418       .  A
C1350      N1351   1.440       .  S
N1351      O1355   1.262       .  A
N1351      O1356   1.264       .  A
N1354      O1358   1.262       .  A
N1354      O1357   1.263       .  A
C1359      C1360   1.371       .  A
C1359      C1364   1.366       .  A
C1359      H1366   1.085       .  S
C1360      C1361   1.454       .  A
C1361      C1362   1.466       .  A
C1361      N1368   1.421       .  S
C1362      C1363   1.442       .  A
C1362      H1367   1.067       .  S
C1363      C1364   1.397       .  A
C1364      N1365   1.432       .  S
N1365      O1369   1.247       .  A
N1365      O1370   1.241       .  A
N1368      O1372   1.262       .  A
N1368      O1371   1.256       .  A
C1373      C1374   1.424       .  A
C1373      C1378   1.421       .  A
C1373      H1380   1.067       .  S
C1374      C1375   1.435       .  A
C1375      C1376   1.449       .  A
C1375      N1382   1.440       .  S
C1376      C1377   1.411       .  A
C1376      H1381   1.080       .  S
C1377      C1378   1.416       .  A
C1378      N1379   1.435       .  S
N1379      O1383   1.259       .  A
N1379      O1384   1.262       .  A
N1382      O1386   1.262       .  A
C1387      C1388   1.422       .  A
C1387      C1392   1.382       .  A
C1387      H1394   1.054       .  S
C1388      C1389   1.484       .  A
C1389      C1390   1.413       .  A
C1389      N1396   1.446       .  S
C1390      C1391   1.394       .  A
C1390      H1395   1.072       .  S
C1391      C1392   1.401       .  A
C1392      N1393   1.437       .  S
N1393      O1397   1.264       .  A
N1393      O1398   1.257       .  A
N1396      O1400   1.258       .  A
N1396      O1399   1.258       .  A
C1401      C1402   1.427       .  A
C1401      C1406   1.443       .  A
C1401      H1408   1.080       .  S
C1402      C1403   1.446       .  A
C1403      C1404   1.448       .  A
C1403      N1410   1.435       .  S
C1404      C1405   1.427       .  A
C1404      H1409   1.070       .  S
C1405      C1406   1.429       .  A
C1406      N1407   1.437       .  S
N1407      O1411   1.263       .  A
N1407      O1412   1.261       .  A
N1410      O1414   1.262       .  A
N1410      O1413   1.262       .  A
C1415      C1416   1.412       .  A
C1415      C1420   1.441       .  A
C1415      H1422   1.077       .  S
C1416      C1417   1.447       .  A
C1417      C1418   1.432       .  A
C1417      N1424   1.427       .  S
C1418      C1419   1.408       .  A
C1418      H1423   1.074       .  S
C1419      C1420   1.447       .  A
C1420      N1421   1.439       .  S
N1421      O1425   1.261       .  A
N1421      O1426   1.262       .  A
N1424      O1428   1.262       .  A
N1424      O1427   1.263       .  A
C1429      C1448   1.562       .  S
C1429      C1595   1.579       .  S
C1429      C1609   1.661       .  S
C1429      C1623   1.661       .  S
C1430      C1461   1.567       .  S
C1430      C1567   1.577       .  S
C1430      C1581   1.638       .  S
C1430      C1620   1.652       .  S
C1431      C1450   1.627       .  S
C1431      C1550   1.672       .  S
C1431      C1578   1.637       .  S
C1431      C1592   1.635       .  S
C1432      C1464   1.553       .  S
C1432      C1553   1.624       .  S
C1432      C1564   1.598       .  S
C1432      C1606   1.672       .  S
C1433      C1463   1.567       .  S
C1433      C1511   1.608       .  S
C1433      C1522   1.655       .  S
C1433      C1536   1.641       .  S
C1434      C1449   1.604       .  S
C1434      C1483   1.583       .  S
C1434      C1494   1.650       .  S
C1434      C1539   1.627       .  S
C1435      C1462   1.554       .  S
C1435      C1469   1.624       .  S
C1435      C1497   1.672       .  S
C1435      C1508   1.662       .  S
C1436      C1447   1.580       .  S
C1436      C1466   1.618       .  S
C1436      C1480   1.590       .  S
C1436      C1525   1.627       .  S
O1437      C1447   1.285       .  A
O1438      C1448   1.280       .  A
O1438     Ni1445   1.929       .  S
O1439      C1449   1.298       .  A
O1440      C1450   1.301       .  A
O1441      C1450   1.292       .  A
O1442      C1449   1.288       .  A
O1443      C1448   1.290       .  A
O1443     Ni1446   1.973       .  S
O1444      C1447   1.298       .  A
Ni1445    Ni1446   2.355       .  S
O1451      C1461   1.287       .  A
O1451     Ni1459   1.964       .  S
O1452      C1462   1.284       .  A
O1453      C1463   1.282       .  A
O1453     Ni1459   1.936       .  S
O1454      C1464   1.276       .  A
O1455      C1464   1.291       .  A
O1456      C1463   1.292       .  A
O1456     Ni1460   1.978   1_655  S
O1457      C1462   1.285       .  A
O1458      C1461   1.278       .  A
O1458     Ni1460   1.938   1_655  S
Ni1459    Ni1460   2.359   1_655  S
C1465      C1466   1.422       .  A
C1465      C1470   1.439       .  A
C1465      H1472   1.084       .  S
C1466      C1467   1.395       .  A
C1467      C1468   1.438       .  A
C1467      N1474   1.424       .  S
C1468      C1469   1.401       .  A
C1468      H1473   1.080       .  S
C1469      C1470   1.430       .  A
C1470      N1471   1.415       .  S
N1471      O1475   1.262       .  A
N1471      O1476   1.259       .  A
N1474      O1477   1.262       .  A
C1479      C1480   1.360       .  A
C1479      C1484   1.338       .  A
C1479      H1486   1.086       .  S
C1480      C1481   1.395       .  A
C1481      C1482   1.472       .  A
C1482      C1483   1.449       .  A
C1482      H1487   1.073       .  S
C1483      C1484   1.401       .  A
C1484      N1485   1.400       .  S
N1485      O1489   1.228       .  A
N1485      O1490   1.246       .  A
N1488      O1492   1.250       .  A
N1488      O1491   1.260       .  A
C1493      C1494   1.426       .  A
C1493      C1498   1.430       .  A
C1493      H1500   1.071       .  S
C1494      C1495   1.443       .  A
C1495      C1496   1.445       .  A
C1495      N1502   1.429       .  S
C1496      C1497   1.427       .  A
C1496      H1501   1.065       .  S
C1497      C1498   1.427       .  A
C1498      N1499   1.439       .  S
N1499      O1503   1.260       .  A
N1499      O1504   1.262       .  A
N1502      O1506   1.262       .  A
N1502      O1505   1.261       .  A
C1507      C1508   1.410       .  A
C1507      C1512   1.429       .  A
C1507      H1514   1.074       .  S
C1508      C1509   1.482       .  A
C1509      C1510   1.404       .  A
C1509      N1516   1.436       .  S
C1510      C1511   1.381       .  A
C1510      H1515   1.077       .  S
C1511      C1512   1.429       .  A
C1512      N1513   1.418       .  S
N1513      O1517   1.259       .  A
N1513      O1518   1.253       .  A
N1516      O1520   1.248       .  A
N1516      O1519   1.253       .  A
C1521      C1522   1.409       .  A
C1521      C1526   1.444       .  A
C1521      H1528   1.080       .  S
C1522      C1523   1.425       .  A
C1523      C1524   1.403       .  A
C1523      N1530   1.435       .  S
C1524      C1525   1.415       .  A
C1524      H1529   1.065       .  S
C1525      C1526   1.435       .  A
C1526      N1527   1.417       .  S
N1527      O1531   1.261       .  A
N1530      O1534   1.264       .  A
N1530      O1533   1.263       .  A
C1535      C1536   1.423       .  A
C1535      C1540   1.429       .  A
C1535      H1542   1.074       .  S
C1536      C1537   1.411       .  A
C1537      C1538   1.430       .  A
C1537      N1544   1.442       .  S
C1538      C1539   1.426       .  A
C1538      H1543   1.041       .  S
C1539      C1540   1.424       .  A
C1540      N1541   1.429       .  S
N1541      O1545   1.260       .  A
N1541      O1546   1.262       .  A
N1544      O1548   1.261       .  A
N1544      O1547   1.263       .  A
C1549      C1550   1.420       .  A
C1549      C1554   1.439       .  A
C1549      H1556   1.082       .  S
C1550      C1551   1.437       .  A
C1551      C1552   1.430       .  A
C1551      N1558   1.437       .  S
C1552      C1553   1.417       .  A
C1552      H1557   1.075       .  S
C1553      C1554   1.417       .  A
C1554      N1555   1.440       .  S
N1555      O1559   1.262       .  A
N1555      O1560   1.264       .  A
N1558      O1562   1.262       .  A
N1558      O1561   1.263       .  A
C1563      C1564   1.370       .  A
C1563      C1568   1.362       .  A
C1563      H1570   1.086       .  S
C1564      C1565   1.451       .  A
C1565      C1566   1.468       .  A
C1565      N1572   1.419       .  S
C1566      C1567   1.444       .  A
C1566      H1571   1.071       .  S
C1567      C1568   1.399       .  A
C1568      N1569   1.433       .  S
N1569      O1573   1.248       .  A
N1569      O1574   1.241       .  A
N1572      O1576   1.261       .  A
N1572      O1575   1.256       .  A
C1577      C1578   1.411       .  A
C1577      C1582   1.419       .  A
C1577      H1584   1.062       .  S
C1578      C1579   1.435       .  A
C1579      C1580   1.451       .  A
C1579      N1586   1.440       .  S
C1580      C1581   1.414       .  A
C1580      H1585   1.080       .  S
C1581      C1582   1.437       .  A
C1582      N1583   1.448       .  S
N1583      O1587   1.262       .  A
N1583      O1588   1.258       .  A
N1586      O1590   1.263       .  A
C1591      C1592   1.420       .  A
C1591      C1596   1.384       .  A
C1591      H1598   1.056       .  S
C1592      C1593   1.481       .  A
C1593      C1594   1.413       .  A
C1593      N1600   1.445       .  S
C1594      C1595   1.395       .  A
C1594      H1599   1.073       .  S
C1595      C1596   1.402       .  A
C1596      N1597   1.436       .  S
N1597      O1601   1.264       .  A
N1597      O1602   1.257       .  A
N1600      O1604   1.258       .  A
N1600      O1603   1.257       .  A
C1605      C1606   1.425       .  A
C1605      C1610   1.440       .  A
C1605      H1612   1.080       .  S
C1606      C1607   1.447       .  A
C1607      C1608   1.446       .  A
C1607      N1614   1.436       .  S
C1608      C1609   1.426       .  A
C1608      H1613   1.071       .  S
C1609      C1610   1.430       .  A
C1610      N1611   1.437       .  S
N1611      O1615   1.263       .  A
N1611      O1616   1.261       .  A
N1614      O1618   1.262       .  A
N1614      O1617   1.262       .  A
C1619      C1620   1.411       .  A
C1619      C1624   1.444       .  A
C1619      H1626   1.077       .  S
C1620      C1621   1.450       .  A
C1621      C1622   1.433       .  A
C1621      N1628   1.427       .  S
C1622      C1623   1.408       .  A
C1622      H1627   1.074       .  S
C1623      C1624   1.448       .  A
C1624      N1625   1.439       .  S
N1625      O1629   1.261       .  A
N1625      O1630   1.262       .  A
N1628      O1632   1.262       .  A
N1628      O1631   1.263       .  A
