geometry optimzed in LAMMPS
_audit_creation_date              2020-12-01 
_audit_creation_method            'lammps2cif' 
_symmetry_space_group_name_H-M    'P1' 
_symmetry_Int_Tables_number       1 
_symmetry_cell_setting            triclinic 
loop_ 
_symmetry_equiv_pos_as_xyz 
  x,y,z 
_cell_length_a                    50.81922263 
_cell_length_b                    50.43334221461171 
_cell_length_c                    50.195749523533095 
_cell_angle_alpha                 89.57475014187119 
_cell_angle_beta                  90.53074143450209 
_cell_angle_gamma                 89.48913334680248 
loop_ 
_atom_site_label 
_atom_site_type_symbol 
_atom_site_fract_x 
_atom_site_fract_y 
_atom_site_fract_z 
_atom_site_charge 
C1          C  0.09310228  0.08133592  0.08633798     0.86600
C2          C  0.11098025  0.06722922  0.10753776    -0.53600
C3          C  0.12539406  0.08415904  0.12298830     0.09500
C4          C  0.12063529  0.11348415  0.11622930     0.20500
C5          C  0.07645433  0.10091477  0.10285643    -0.54400
C6          C  0.09083420  0.11770300  0.11830697     0.09600
C7          C  0.11264997  0.09895702  0.07081237    -0.53900
C8          C  0.12701254  0.11581223  0.08645051     0.10200
H9          H  0.11275826  0.04605072  0.11048850     0.14700
H10         H  0.13221575  0.12702886  0.12905345     0.00400
H11         H  0.05508280  0.10130498  0.10247421     0.15000
H12         H  0.11464680  0.09829460  0.04931879     0.14800
C13         C  0.95575267  0.13112631  0.92379212     0.86600
C14         C  0.97224100  0.11029733  0.93940387    -0.53600
C15         C  0.95770569  0.09257155  0.95392216     0.09500
C16         C  0.92738592  0.09764823  0.95160018     0.20500
C17         C  0.93622241  0.11494951  0.90732769    -0.54400
C18         C  0.92144484  0.09697591  0.92113121     0.09600
C19         C  0.93910155  0.14401967  0.94563065    -0.53900
C20         C  0.92358609  0.12723716  0.95959092     0.10200
H21         H  0.99358588  0.10983344  0.93961558     0.14700
H22         H  0.91586379  0.08354015  0.96368546     0.00400
H23         H  0.93421509  0.11793516  0.88594770     0.15000
H24         H  0.93875424  0.16506784  0.94976620     0.14800
C25         C  0.94204867  0.94752649  0.07672055     0.86600
C26         C  0.92414179  0.96324924  0.09610732    -0.53600
C27         C  0.90866928  0.94789262  0.11236685     0.09500
C28         C  0.91268672  0.91791475  0.10760440     0.20500
C29         C  0.95754855  0.92815059  0.09511096    -0.54400
C30         C  0.94239771  0.91296517  0.11162023     0.09600
C31         C  0.92206000  0.92995481  0.06165120    -0.53900
C32         C  0.90739062  0.91401475  0.07764421     0.10200
H33         H  0.92371474  0.98475459  0.09680097     0.14700
H34         H  0.90054733  0.90518757  0.12059912     0.00400
H35         H  0.97886490  0.92667107  0.09487673     0.15000
H36         H  0.91811430  0.93067396  0.04051099     0.14800
C37         C  0.13103330  0.95334471  0.90929966     0.86600
C38         C  0.14737872  0.93521370  0.92772248    -0.53600
C39         C  0.13335885  0.92117860  0.94582034     0.09500
C40         C  0.10349651  0.92721285  0.94469397     0.20500
C41         C  0.10999601  0.93505529  0.89738462    -0.54400
C42         C  0.09572511  0.92129236  0.91552232     0.09600
C43         C  0.11484371  0.97118674  0.92786907    -0.53900
C44         C  0.10038973  0.95823111  0.94722537     0.10200
H45         H  0.16842829  0.93221745  0.92529458     0.14700
H46         H  0.09261294  0.91482237  0.95903453     0.00400
H47         H  0.10629830  0.93201464  0.87645946     0.15000
H48         H  0.11384031  0.99213351  0.92371996     0.14800
C49         C  0.02152265  0.01439842  0.01759972    -0.02400
N50         N  0.74290816  0.81880039  0.52422520    -0.27200
N51         N  0.75997471  0.81662841  0.50465235    -0.35000
C52         C  0.76952873  0.84054416  0.49851656     0.01200
C53         C  0.75810234  0.85910044  0.51488548     0.07200
C54         C  0.74131521  0.84461979  0.53114263    -0.05900
H55         H  0.78573713  0.84372790  0.48507361     0.07800
H56         H  0.72984198  0.85211633  0.54754444     0.09000
Cu57       Cu  0.77831788  0.78196758  0.49449075     0.44200
Cu58       Cu  0.72632414  0.78490212  0.54174877     0.42000
Cu59       Cu  0.77537672  0.73204079  0.54382507     0.43900
N60         N  0.81125834  0.76251055  0.50838511    -0.34600
N61         N  0.81089486  0.74501897  0.52805939    -0.28800
C62         C  0.83582429  0.74063618  0.53653926    -0.04900
C63         C  0.85247396  0.75647017  0.52153341     0.07300
C64         C  0.83609226  0.77003012  0.50398520     0.01100
H65         H  0.84121130  0.72820018  0.55340622     0.08700
H66         H  0.84162102  0.78544374  0.49006724     0.07800
N67         N  0.73564177  0.72618837  0.55210833    -0.36000
N68         N  0.71761347  0.74529830  0.55156224    -0.28200
C69         C  0.69392418  0.73451116  0.55660282    -0.03400
C70         C  0.69707988  0.70726166  0.56012708     0.05200
C71         C  0.72391655  0.70290821  0.55736906     0.03300
H72         H  0.67560201  0.74558245  0.55702269     0.08400
H73         H  0.73431016  0.68417106  0.55917320     0.07200
N74         N  0.50665418  0.73883236  0.81262264    -0.27200
N75         N  0.49216421  0.76062634  0.81379460    -0.35000
C76         C  0.48912331  0.76768050  0.83927002     0.01200
C77         C  0.50192475  0.74919367  0.85514900     0.07200
C78         C  0.51282366  0.73101658  0.83766848    -0.05900
H79         H  0.47943401  0.78570078  0.84567053     0.07800
H80         H  0.52555107  0.71438052  0.84270487     0.09000
Cu81       Cu  0.48320564  0.78376128  0.78138306     0.44200
Cu82       Cu  0.51988086  0.72459869  0.77624292     0.42000
Cu83       Cu  0.52515522  0.77726222  0.72531033     0.43900
N84         N  0.49620634  0.81549087  0.76004055    -0.34600
N85         N  0.51343156  0.81392654  0.74058530    -0.28800
C86         C  0.52252061  0.83849603  0.73556604    -0.04900
C87         C  0.51036018  0.85610059  0.75293107     0.07300
C88         C  0.49385976  0.84065284  0.76800950     0.01100
H89         H  0.53795450  0.84288343  0.72155762     0.08700
H90         H  0.48212458  0.84691808  0.78473704     0.07800
N91         N  0.53108238  0.73686093  0.71798052    -0.36000
N92         N  0.52947336  0.71812563  0.73651509    -0.28200
C93         C  0.53508771  0.69453140  0.72553546    -0.03400
C94         C  0.54019695  0.69835469  0.69874352     0.05200
C95         C  0.53755087  0.72548620  0.69467394     0.03300
H96         H  0.53575950  0.67591798  0.73638847     0.08400
H97         H  0.54107374  0.73629731  0.67637605     0.07200
N98         N  0.51046565  0.74298424  0.23345116    -0.27200
N99         N  0.52821459  0.76180734  0.23140456    -0.35000
C100        C  0.53226690  0.76746731  0.20565100     0.01200
C101        C  0.51662143  0.75112425  0.19053871     0.07200
C102        C  0.50302935  0.73569031  0.20873412    -0.05900
H103        H  0.54474332  0.78321985  0.19850281     0.07800
H104        H  0.48786900  0.72139964  0.20435843     0.09000
Cu105      Cu  0.54134849  0.78332380  0.26310441     0.44200
Cu106      Cu  0.49593178  0.73195585  0.27051326     0.42000
Cu107      Cu  0.50293691  0.78371994  0.32215145     0.43900
N108        N  0.53713470  0.81613794  0.28627466    -0.34600
N109        N  0.52149937  0.81764898  0.30706421    -0.28800
C110        C  0.51816864  0.84351604  0.31309184    -0.04900
C111        C  0.53244492  0.85878935  0.29507487     0.07300
C112        C  0.54399821  0.84050688  0.27842585     0.01100
H113        H  0.50506335  0.85073394  0.32832595     0.08700
H114        H  0.55414975  0.84455573  0.26002544     0.07800
N115        N  0.48985221  0.74490573  0.32939005    -0.36000
N116        N  0.48778100  0.72650221  0.31079230    -0.28200
C117        C  0.48108698  0.70338733  0.32231453    -0.03400
C118        C  0.47855235  0.70720731  0.34943827     0.05200
C119        C  0.48423172  0.73381958  0.35320384     0.03300
H120        H  0.47860079  0.68496539  0.31171067     0.08400
H121        H  0.48527669  0.74411379  0.37200787     0.07200
N122        N  0.74764624  0.52779141  0.23342323    -0.27200
N123        N  0.76481791  0.54726095  0.23260512    -0.35000
C124        C  0.77284261  0.55088452  0.20744322     0.01200
C125        C  0.76025233  0.53269706  0.19143823     0.07200
C126        C  0.74406557  0.51863769  0.20854898    -0.05900
H127        H  0.78775071  0.56488790  0.20162077     0.07800
H128        H  0.73180733  0.50194078  0.20352067     0.09000
Cu129      Cu  0.78385682  0.56121929  0.26569269     0.44200
Cu130      Cu  0.73398982  0.51223958  0.26924805     0.42000
Cu131      Cu  0.78616966  0.51241845  0.31807128     0.43900
N132        N  0.81827484  0.54723994  0.28215412    -0.34600
N133        N  0.81979211  0.52766117  0.29973503    -0.28800
C134        C  0.84463593  0.51796805  0.29984623    -0.04900
C135        C  0.85913469  0.53184342  0.28093865     0.07300
C136        C  0.84168557  0.55040656  0.27054462     0.01100
H137        H  0.85119173  0.50131242  0.31192226     0.08700
H138        H  0.84495343  0.56344667  0.25370736     0.07800
N139        N  0.74742761  0.50175027  0.32711268    -0.36000
N140        N  0.72838571  0.50157293  0.30898840    -0.28200
C141        C  0.70571607  0.49471881  0.32075645    -0.03400
C142        C  0.71046481  0.49021225  0.34771646     0.05200
C143        C  0.73725078  0.49506682  0.35093959     0.03300
H144        H  0.68704458  0.49319007  0.31038195     0.08400
H145        H  0.74847228  0.49467557  0.36932922     0.07200
O146        O  0.50917719  0.78052397  0.06261840    -0.72800
O147        O  0.50872211  0.77995486  0.98192574    -0.73800
O148        O  0.47001740  0.78063280  0.02203310    -0.62400
O149        O  0.54780269  0.78193836  0.02224460    -0.70800
O150        O  0.55059397  0.73819929  0.02248433    -0.70400
O151        O  0.47033979  0.73664135  0.02418757    -0.61700
O152        O  0.50946913  0.73609112  0.98353798    -0.74200
O153        O  0.51134983  0.73671461  0.06258478    -0.72900
Cu154      Cu  0.50890657  0.78224015  0.02216341     1.04600
Cu155      Cu  0.51048206  0.73534099  0.02315408     1.04300
C156        C  0.51029175  0.75842207  0.07537014     0.93400
C157        C  0.50898729  0.75759172  0.97000791     0.92500
C158        C  0.45776486  0.75880624  0.02361337     0.84600
C159        C  0.56180810  0.76090483  0.02242974     0.90900
O160        O  0.74814982  0.51745741  0.06337764    -0.72800
O161        O  0.74771637  0.51044657  0.98537524    -0.73800
O162        O  0.74996193  0.47360276  0.02865852    -0.62400
O163        O  0.74839810  0.55410112  0.02051579    -0.70800
O164        O  0.79190623  0.55318791  0.02171705    -0.70400
O165        O  0.79360317  0.47485636  0.02760068    -0.61700
O166        O  0.79141069  0.51127623  0.98429720    -0.74200
O167        O  0.79159661  0.51693285  0.06536193    -0.72900
Cu168      Cu  0.74705930  0.51386122  0.02445569     1.04600
Cu169      Cu  0.79367878  0.51408124  0.02474880     1.04300
C170        C  0.76926406  0.51815719  0.07708250     0.93400
C171        C  0.76904665  0.50998805  0.97237841     0.92500
C172        C  0.77240399  0.46174745  0.02928655     0.84600
C173        C  0.77041758  0.56631313  0.01999060     0.90900
N174        N  0.79175944  0.72282173  0.00895321    -0.27200
N175        N  0.77243114  0.72115115  0.99134427    -0.35000
C176        C  0.76598204  0.69564866  0.98809770     0.01200
C177        C  0.78187907  0.68016824  0.00457817     0.07200
C178        C  0.79807043  0.69819931  0.01754815    -0.05900
H179        H  0.74941232  0.68914400  0.97623472     0.07800
H180        H  0.81184390  0.69409153  0.03361778     0.09000
Cu181      Cu  0.74850714  0.75264897  0.98149608     0.44200
Cu182      Cu  0.80464557  0.75926422  0.02306354     0.42000
Cu183      Cu  0.75112346  0.80555788  0.02997664     0.43900
N184        N  0.71573312  0.76942999  0.99815341    -0.34600
N185        N  0.71620756  0.78741403  0.01716858    -0.28800
C186        C  0.69171738  0.78979650  0.02704396    -0.04900
C187        C  0.67532051  0.77206022  0.01392110     0.07300
C188        C  0.69132020  0.75979633  0.99556402     0.01100
H189        H  0.68640269  0.80282611  0.04318791     0.08700
H190        H  0.68592276  0.74448489  0.98163413     0.07800
N191        N  0.79061159  0.81595095  0.03641913    -0.36000
N192        N  0.81014190  0.79887029  0.03313246    -0.28200
C193        C  0.83313211  0.81126840  0.03721952    -0.03400
C194        C  0.82824600  0.83766793  0.04362349     0.05200
C195        C  0.80079548  0.83965116  0.04311307     0.03300
H196        H  0.85208597  0.80159058  0.03540761     0.08400
H197        H  0.78883863  0.85676099  0.04774387     0.07200
N198        N  0.73418229  0.50926669  0.81940543    -0.27200
N199        N  0.75388394  0.49208673  0.81793574    -0.35000
C200        C  0.76166399  0.48504798  0.84261202     0.01200
C201        C  0.74636385  0.49856466  0.86067021     0.07200
C202        C  0.72908865  0.51380077  0.84526598    -0.05900
H203        H  0.77939726  0.47376369  0.84705122     0.07800
H204        H  0.71536762  0.52864392  0.85230205     0.09000
Cu205      Cu  0.77721122  0.48818137  0.78497354     0.44200
Cu206      Cu  0.71959302  0.52947379  0.78608745     0.42000
Cu207      Cu  0.77307775  0.54504441  0.74214702     0.43900
N208        N  0.80963892  0.50600290  0.76880048    -0.34600
N209        N  0.80851615  0.52844280  0.75514164    -0.28800
C210        C  0.83302199  0.53803254  0.75293554    -0.04900
C211        C  0.85040513  0.52087894  0.76615382     0.07300
C212        C  0.83472414  0.50058327  0.77552889     0.01100
H213        H  0.83765920  0.55662196  0.74325591     0.08700
H214        H  0.84070741  0.48336309  0.78704362     0.07800
N215        N  0.73377352  0.55196714  0.73242695    -0.36000
N216        N  0.71406775  0.54595040  0.74831897    -0.28200
C217        C  0.69118389  0.55083904  0.73538705    -0.03400
C218        C  0.69674363  0.56023241  0.71001816     0.05200
C219        C  0.72396998  0.56089586  0.70903241     0.03300
H220        H  0.67197574  0.54769832  0.74388259     0.08400
H221        H  0.73583088  0.56660123  0.69218093     0.07200
N222        N  0.30176319  0.82110327  0.52153942    -0.27200
N223        N  0.27998908  0.82150064  0.53570757    -0.35000
C224        C  0.27298010  0.84659476  0.54081895     0.01200
C225        C  0.29113839  0.86313996  0.52941604     0.07200
C226        C  0.30945287  0.84639871  0.51758859    -0.05900
H227        H  0.25508207  0.85237094  0.55083186     0.07800
H228        H  0.32610283  0.85223271  0.50569101     0.09000
Cu229      Cu  0.25603410  0.78970398  0.54124115     0.44200
Cu230      Cu  0.31632094  0.78550979  0.50579030     0.42000
Cu231      Cu  0.26192364  0.73812620  0.49520780     0.43900
N232        N  0.22402501  0.76982477  0.52719354    -0.34600
N233        N  0.22538260  0.75156195  0.50858101    -0.28800
C234        C  0.20071056  0.74612764  0.50021008    -0.04900
C235        C  0.18319615  0.76203647  0.51428700     0.07300
C236        C  0.19886542  0.77672795  0.53111864     0.01100
H237        H  0.19604078  0.73266459  0.48421509     0.08700
H238        H  0.19256927  0.79221566  0.54449389     0.07800
N239        N  0.30178997  0.72946096  0.48942732    -0.36000
N240        N  0.32142990  0.74612901  0.49338132    -0.28200
C241        C  0.34435211  0.73326303  0.48884590    -0.03400
C242        C  0.33894482  0.70737156  0.48143241     0.05200
C243        C  0.31173527  0.70577232  0.48228864     0.03300
H244        H  0.36357872  0.74212864  0.49075014     0.08400
H245        H  0.29992347  0.68840733  0.47870513     0.07200
O246        O  0.01308883  0.79427889  0.47898530    -0.72800
O247        O  0.02056902  0.79786270  0.55745417    -0.73800
O248        O  0.05677971  0.79531886  0.51457771    -0.62400
O249        O  0.97693843  0.79434056  0.52178512    -0.70800
O250        O  0.97936317  0.75059354  0.52366366    -0.70400
O251        O  0.05680821  0.75152786  0.51691484    -0.61700
O252        O  0.02167325  0.75415891  0.56084864    -0.74200
O253        O  0.01440802  0.75045265  0.47964855    -0.72900
Cu254      Cu  0.01681574  0.79694540  0.51813620     1.04600
Cu255      Cu  0.01810368  0.75016289  0.52036907     1.04300
C256        C  0.01267264  0.77236589  0.46654543     0.93400
C257        C  0.02210759  0.77703428  0.57190538     0.92500
C258        C  0.06935399  0.77314599  0.51454546     0.84600
C259        C  0.96558312  0.77180683  0.52377014     0.90900
O260        O  0.97549635  0.52667615  0.74821324    -0.72800
O261        O  0.05310647  0.52354349  0.74290946    -0.73800
O262        O  0.01292864  0.48471451  0.74501265    -0.62400
O263        O  0.01575963  0.56515399  0.74792333    -0.70800
O264        O  0.01853998  0.56212328  0.79185050    -0.70400
O265        O  0.01639172  0.48408978  0.78902950    -0.61700
O266        O  0.05712976  0.52207451  0.78679119    -0.74200
O267        O  0.97766620  0.52445829  0.79229049    -0.72900
Cu268      Cu  0.01420525  0.52504147  0.74445993     1.04600
Cu269      Cu  0.01755408  0.52305567  0.79148959     1.04300
C270        C  0.96410995  0.52635728  0.77070475     0.93400
C271        C  0.06766163  0.52287799  0.76371344     0.92500
C272        C  0.01400120  0.47180926  0.76710024     0.84600
C273        C  0.01762871  0.57626590  0.77073950     0.90900
N274        N  0.02534295  0.73148739  0.79929944    -0.27200
N275        N  0.00638584  0.73232031  0.78119871    -0.35000
C276        C  0.00056335  0.70760860  0.77369453     0.01200
C277        C  0.01667706  0.69005733  0.78766231     0.07200
C278        C  0.03222154  0.70600382  0.80380344    -0.05900
H279        H  0.98678520  0.70297125  0.75788910     0.07800
H280        H  0.04850785  0.69985616  0.81646803     0.09000
Cu281      Cu  0.99614137  0.76619536  0.76074421     0.44200
Cu282      Cu  0.04195812  0.76595733  0.81377377     0.42000
Cu283      Cu  0.04062537  0.82040816  0.76546817     0.43900
N284        N  0.00801616  0.78754561  0.72820399    -0.34600
N285        N  0.02590915  0.80637318  0.72887219    -0.28800
C286        C  0.03351397  0.81140234  0.70359181    -0.04900
C287        C  0.01980671  0.79462860  0.68648156     0.07300
C288        C  0.00388948  0.77996751  0.70299483     0.01100
H289        H  0.04904212  0.82492261  0.69827302     0.08700
H290        H  0.99136509  0.76368006  0.69731493     0.07800
N291        N  0.04906832  0.82508592  0.80636422    -0.36000
N292        N  0.04969064  0.80504259  0.82353575    -0.28200
C293        C  0.05438556  0.81429260  0.84817701    -0.03400
C294        C  0.05709274  0.84156531  0.84677325     0.05200
C295        C  0.05342235  0.84769233  0.81988198     0.03300
H296        H  0.05492997  0.80199822  0.86591143     0.08400
H297        H  0.05389266  0.86721143  0.81082069     0.07200
N298        N  0.22129799  0.53628345  0.73676424    -0.27200
N299        N  0.21955058  0.55158677  0.75791517    -0.35000
C300        C  0.19430876  0.55387909  0.76505327     0.01200
C301        C  0.17915246  0.53927329  0.74768767     0.07200
C302        C  0.19690890  0.52846948  0.72979636    -0.05900
H303        H  0.18781847  0.56330549  0.78316814     0.07800
H304        H  0.19275476  0.51402580  0.71453762     0.09000
Cu305      Cu  0.25034152  0.55879828  0.78325077     0.44200
Cu306      Cu  0.25744132  0.52255288  0.72298155     0.42000
Cu307      Cu  0.30235407  0.51085074  0.77822141     0.43900
N308        N  0.26620590  0.53951007  0.81571860    -0.34600
N309        N  0.28419572  0.52053822  0.81424728    -0.28800
C310        C  0.28655102  0.50886172  0.83841604    -0.04900
C311        C  0.26875523  0.52081123  0.85564030     0.07300
C312        C  0.25648334  0.54032561  0.84045986     0.01100
H313        H  0.29977030  0.49248365  0.84296653     0.08700
H314        H  0.24129913  0.55402461  0.84669449     0.07800
N315        N  0.31312570  0.50667012  0.73821153    -0.36000
N316        N  0.29661063  0.51110218  0.71807750    -0.28200
C317        C  0.30911995  0.50641161  0.69501301    -0.03400
C318        C  0.33479589  0.49889101  0.70080119     0.05200
C319        C  0.33658286  0.49898098  0.72837510     0.03300
H320        H  0.29997554  0.50761518  0.67548763     0.08400
H321        H  0.35348513  0.49320160  0.74039727     0.07200
N322        N  0.74520534  0.22804245  0.53552887    -0.27200
N323        N  0.76601614  0.22785797  0.55149119    -0.35000
C324        C  0.77479650  0.20287110  0.55472697     0.01200
C325        C  0.75878465  0.18629346  0.54018623     0.07200
C326        C  0.74008023  0.20293165  0.52832548    -0.05900
H327        H  0.79289990  0.19749164  0.56500153     0.07800
H328        H  0.72541372  0.19753093  0.51363418     0.09000
Cu329      Cu  0.78807296  0.26071351  0.55960691     0.44200
Cu330      Cu  0.72920065  0.26299472  0.51978173     0.42000
Cu331      Cu  0.78222403  0.30877491  0.50740777     0.43900
N332        N  0.82000686  0.27912297  0.54336911    -0.34600
N333        N  0.81851450  0.29485256  0.52226794    -0.28800
C334        C  0.84296633  0.29784057  0.51251980    -0.04900
C335        C  0.86054621  0.28289883  0.52810565     0.07300
C336        C  0.84511216  0.27178108  0.54772842     0.01100
H337        H  0.84744832  0.30904609  0.49469725     0.08700
H338        H  0.85126033  0.25844019  0.56356610     0.07800
N339        N  0.74243066  0.31790425  0.50018289    -0.36000
N340        N  0.72302109  0.30129060  0.50503086    -0.28200
C341        C  0.69990880  0.31334829  0.49905643    -0.03400
C342        C  0.70486968  0.33876783  0.48972290     0.05200
C343        C  0.73210922  0.34093246  0.49095907     0.03300
H344        H  0.68086810  0.30415186  0.50104725     0.08400
H345        H  0.74364574  0.35816338  0.48601453     0.07200
O346        O  0.75969280  0.02095337  0.56235509    -0.72800
O347        O  0.76309853  0.02145749  0.48110237    -0.73800
O348        O  0.76184077  0.98193410  0.52178998    -0.62400
O349        O  0.75837521  0.05985076  0.52171424    -0.70800
O350        O  0.80165759  0.06307501  0.52452005    -0.70400
O351        O  0.80552657  0.98214980  0.52350775    -0.61700
O352        O  0.80642924  0.02349049  0.48427763    -0.74200
O353        O  0.80315094  0.02216060  0.56342786    -0.72900
Cu354      Cu  0.75929558  0.02092976  0.52162457     1.04600
Cu355      Cu  0.80574430  0.02271791  0.52396920     1.04300
C356        C  0.78131346  0.02190566  0.57571174     0.93400
C357        C  0.78564044  0.02291872  0.46988298     0.92500
C358        C  0.78372214  0.96956818  0.52255026     0.84600
C359        C  0.77880690  0.07410330  0.52372629     0.90900
O360        O  0.56240418  0.01896929  0.79765791    -0.72800
O361        O  0.48497763  0.02353808  0.78940829    -0.73800
O362        O  0.52172519  0.98091787  0.79189503    -0.62400
O363        O  0.52557252  0.06201226  0.79208598    -0.70800
O364        O  0.53017553  0.06024592  0.74832559    -0.70400
O365        O  0.52531195  0.98284066  0.74807433    -0.61700
O366        O  0.48781702  0.02468929  0.74528843    -0.74200
O367        O  0.56758951  0.01842629  0.75396442    -0.72900
Cu368      Cu  0.52356566  0.02137658  0.79434338     1.04600
Cu369      Cu  0.52791171  0.02156063  0.74744010     1.04300
C370        C  0.57747885  0.01758105  0.77758892     0.93400
C371        C  0.47403841  0.02495819  0.76655870     0.92500
C372        C  0.52274614  0.96922525  0.76928351     0.84600
C373        C  0.52817907  0.07377057  0.76948294     0.90900
N374        N  0.73101071  0.00639951  0.81189215    -0.27200
N375        N  0.73068003  0.99323852  0.78923745    -0.35000
C376        C  0.70581267  0.98995112  0.78096013     0.01200
C377        C  0.68921267  0.00154144  0.79908927     0.07200
C378        C  0.70581840  0.01167957  0.81871812    -0.05900
H379        H  0.70035957  0.98206003  0.76171560     0.07800
H380        H  0.70012111  0.02407593  0.83522665     0.09000
Cu381      Cu  0.76209488  0.98955966  0.76445271     0.44200
Cu382      Cu  0.76662471  0.02069658  0.82783527     0.42000
Cu383      Cu  0.81122561  0.03741133  0.77247716     0.43900
N384        N  0.78051856  0.00630082  0.73251927    -0.34600
N385        N  0.79814192  0.02523121  0.73471211    -0.28800
C386        C  0.80362217  0.03433540  0.71000994    -0.04900
C387        C  0.78834292  0.02049272  0.69163964     0.07300
C388        C  0.77393919  0.00305015  0.70683552     0.01100
H389        H  0.81697418  0.05038884  0.70583574     0.08700
H390        H  0.75921668  0.98933520  0.69980485     0.07800
N391        N  0.82071824  0.04127661  0.81312998    -0.36000
N392        N  0.80540620  0.03439000  0.83317084    -0.28200
C393        C  0.81871372  0.03822274  0.85626769    -0.03400
C394        C  0.84370561  0.04802678  0.85072064     0.05200
C395        C  0.84374954  0.05000004  0.82300201     0.03300
H396        H  0.81067363  0.03418239  0.87573337     0.08400
H397        H  0.85902726  0.05787115  0.81053470     0.07200
N398        N  0.53435919  0.22859342  0.73592496    -0.27200
N399        N  0.55293083  0.22778737  0.75449131    -0.35000
C400        C  0.55630691  0.20274268  0.76310365     0.01200
C401        C  0.53893878  0.18667596  0.74952289     0.07200
C402        C  0.52531581  0.20385272  0.73235173    -0.05900
H403        H  0.56903249  0.19708464  0.77961578     0.07800
H404        H  0.50862675  0.19925059  0.71977641     0.09000
Cu405      Cu  0.56462632  0.26026944  0.77554234     0.44200
Cu406      Cu  0.51949079  0.26410627  0.71994563     0.42000
Cu407      Cu  0.51994063  0.31540696  0.76870618     0.43900
N408        N  0.54903842  0.27953585  0.80763241    -0.34600
N409        N  0.53133995  0.29881640  0.80567551    -0.28800
C410        C  0.52101247  0.30276882  0.83001886    -0.04900
C411        C  0.53271997  0.28492617  0.84796408     0.07300
C412        C  0.55028237  0.27055427  0.83286999     0.01100
H413        H  0.50513888  0.31655227  0.83402380     0.08700
H414        H  0.56223551  0.25385309  0.83945496     0.07800
N415        N  0.51043740  0.32263679  0.72839392    -0.36000
N416        N  0.50939383  0.30337618  0.71066998    -0.28200
C417        C  0.50128419  0.31354378  0.68702920    -0.03400
C418        C  0.49748977  0.34065398  0.68970841     0.05200
C419        C  0.50342199  0.34566879  0.71628370     0.03300
H420        H  0.49817765  0.30201979  0.66919877     0.08400
H421        H  0.50174515  0.36452100  0.72629830     0.07200
O422        O  0.23934456  0.51275868  0.98328534    -0.72800
O423        O  0.24319873  0.51436628  0.06482228    -0.73800
O424        O  0.23822445  0.55284404  0.02327224    -0.62400
O425        O  0.24171402  0.47468298  0.02496248    -0.70800
O426        O  0.28515821  0.47480082  0.02288647    -0.70400
O427        O  0.28168227  0.55528040  0.02239742    -0.61700
O428        O  0.28655292  0.51525983  0.06172632    -0.74200
O429        O  0.28275766  0.51485664  0.98345734    -0.72900
Cu430      Cu  0.23906651  0.51365425  0.02414749     1.04600
Cu431      Cu  0.28549358  0.51513965  0.02254145     1.04300
C432        C  0.26118765  0.51308541  0.97061956     0.93400
C433        C  0.26601871  0.51489841  0.07601395     0.92500
C434        C  0.25904907  0.56668053  0.02306070     0.84600
C435        C  0.26347061  0.46206014  0.02385322     0.90900
N436        N  0.23154301  0.72261029  0.03227939    -0.27200
N437        N  0.24936918  0.72032812  0.05145180    -0.35000
C438        C  0.25584381  0.69473494  0.05493234     0.01200
C439        C  0.24178672  0.67975746  0.03681735     0.07200
C440        C  0.22638417  0.69824238  0.02280451    -0.05900
H441        H  0.27143176  0.68792802  0.06817271     0.07800
H442        H  0.21411058  0.69470625  0.00552854     0.09000
Cu443      Cu  0.27242841  0.75106848  0.06378916     0.44200
Cu444      Cu  0.21900968  0.75964261  0.01798426     0.42000
Cu445      Cu  0.26930074  0.81044306  0.02535822     0.43900
N446        N  0.30541433  0.77120133  0.05239088    -0.34600
N447        N  0.30492234  0.79261883  0.03714806    -0.28800
C448        C  0.32959254  0.79727847  0.02868191    -0.04900
C449        C  0.34626647  0.77732468  0.03863239     0.07300
C450        C  0.33000928  0.76143459  0.05375189     0.01100
H451        H  0.33463087  0.81350901  0.01559781     0.08700
H452        H  0.33518433  0.74279508  0.06331821     0.07800
N453        N  0.23021035  0.81855442  0.01423564    -0.36000
N454        N  0.21226469  0.79999333  0.01065895    -0.28200
C455        C  0.18980776  0.81150885  0.00169987    -0.03400
C456        C  0.19356206  0.83862678  0.00006062     0.05200
C457        C  0.21943843  0.84235120  0.00798927     0.03300
H458        H  0.17221201  0.80086668  0.99618500     0.08400
H459        H  0.23002971  0.86086358  0.00794233     0.07200
O460        O  0.01967200  0.47732411  0.23523799    -0.72800
O461        O  0.02344850  0.55530610  0.23639050    -0.73800
O462        O  0.06150108  0.51389468  0.24113545    -0.62400
O463        O  0.98150124  0.51895591  0.23305395    -0.70800
O464        O  0.97909430  0.51690284  0.27718207    -0.70400
O465        O  0.05629088  0.51420460  0.28479035    -0.61700
O466        O  0.01859277  0.55605136  0.28012050    -0.74200
O467        O  0.01676419  0.47528156  0.27912662    -0.72900
Cu468      Cu  0.02169874  0.51637396  0.23491562     1.04600
Cu469      Cu  0.01758597  0.51558048  0.28182407     1.04300
C470        C  0.01787187  0.46363959  0.25650640     0.93400
C471        C  0.02102230  0.56835246  0.25780626     0.92500
C472        C  0.07142078  0.51336034  0.26474845     0.84600
C473        C  0.96794177  0.51867438  0.25447765     0.90900
N474        N  0.01257696  0.79683166  0.30853332    -0.27200
N475        N  0.03122414  0.77850807  0.31036722    -0.35000
C476        C  0.03408573  0.77069335  0.33583778     0.01200
C477        C  0.01642763  0.78468478  0.35125609     0.07200
C478        C  0.00302373  0.80115155  0.33313344    -0.05900
H479        H  0.04723652  0.75492102  0.34238934     0.07800
H480        H  0.98653674  0.81414940  0.33714768     0.09000
Cu481      Cu  0.04583279  0.75845160  0.27828564     0.44200
Cu482      Cu  0.99975481  0.81190008  0.27151812     0.42000
Cu483      Cu  0.00149004  0.76004300  0.22236510     0.43900
N484        N  0.03606453  0.72533632  0.25713889    -0.34600
N485        N  0.01790150  0.72511981  0.23816859    -0.28800
C486        C  0.01131207  0.69975406  0.23348712    -0.04900
C487        C  0.02579470  0.68334662  0.25069192     0.07300
C488        C  0.04156499  0.70041287  0.26500337     0.01100
H489        H  0.99614776  0.69379191  0.21955939     0.08700
H490        H  0.05530952  0.69543091  0.28084182     0.07800
N491        N  0.99117648  0.79931976  0.21322979    -0.36000
N492        N  0.99123873  0.81856664  0.23101438    -0.28200
C493        C  0.98469409  0.84159451  0.21865806    -0.03400
C494        C  0.97986841  0.83657883  0.19190607     0.05200
C495        C  0.98428590  0.80953938  0.18925649     0.03300
H496        H  0.98290890  0.86051045  0.22853315     0.08400
H497        H  0.98273339  0.79812180  0.17115720     0.07200
N498        N  0.29753131  0.51414769  0.23226907    -0.27200
N499        N  0.28031053  0.49472387  0.23180703    -0.35000
C500        C  0.27333783  0.48968317  0.20655665     0.01200
C501        C  0.28663598  0.50679913  0.18994590     0.07200
C502        C  0.30203087  0.52200812  0.20698330    -0.05900
H503        H  0.25790140  0.47613383  0.20093659     0.07800
H504        H  0.31377110  0.53898639  0.20164874     0.09000
Cu505      Cu  0.25899165  0.48340634  0.26431089     0.44200
Cu506      Cu  0.30936637  0.53113429  0.26819798     0.42000
Cu507      Cu  0.25823381  0.52836979  0.31898377     0.43900
N508        N  0.22526841  0.49345711  0.28405174    -0.34600
N509        N  0.22416493  0.51119731  0.30324684    -0.28800
C510        C  0.19870263  0.51775815  0.30715986    -0.04900
C511        C  0.18327110  0.50360503  0.28927599     0.07300
C512        C  0.20089658  0.48847229  0.27505232     0.01100
H513        H  0.19211842  0.53316307  0.32048353     0.08700
H514        H  0.19653389  0.47620091  0.25801023     0.07800
N515        N  0.29685110  0.54064337  0.32652629    -0.36000
N516        N  0.31520027  0.54161976  0.30801079    -0.28200
C517        C  0.33798491  0.54924407  0.31932115    -0.03400
C518        C  0.33410825  0.55317000  0.34635246     0.05200
C519        C  0.30761259  0.54768858  0.35008466     0.03300
H520        H  0.35627280  0.55125204  0.30866322     0.08400
H521        H  0.29677572  0.54894413  0.36846750     0.07200
O522        O  0.48165919  0.29007819  0.01525765    -0.72800
O523        O  0.56182080  0.28838608  0.01427323    -0.73800
O524        O  0.52086228  0.29030960  0.97560748    -0.62400
O525        O  0.52279404  0.29078920  0.05414528    -0.70800
O526        O  0.52278960  0.24700407  0.05646121    -0.70400
O527        O  0.51996425  0.24653564  0.97456468    -0.61700
O528        O  0.55997157  0.24460473  0.01459755    -0.74200
O529        O  0.48238405  0.24605673  0.01682371    -0.72900
Cu530      Cu  0.52175893  0.29137804  0.01481877     1.04600
Cu531      Cu  0.52121366  0.24449384  0.01562148     1.04300
C532        C  0.46964021  0.26785647  0.01625111     0.93400
C533        C  0.57346783  0.26569841  0.01418180     0.92500
C534        C  0.52032697  0.26897467  0.96225101     0.84600
C535        C  0.52342502  0.26960225  0.06808750     0.90900
N536        N  0.80145762  0.30719956  0.04366849    -0.27200
N537        N  0.78030982  0.30747106  0.05874273    -0.35000
C538        C  0.77222380  0.33253318  0.06239279     0.01200
C539        C  0.78914846  0.34943283  0.04934609     0.07200
C540        C  0.80753631  0.33254244  0.03758798    -0.05900
H541        H  0.75359753  0.33768788  0.07129431     0.07800
H542        H  0.82312753  0.33815940  0.02421341     0.09000
Cu543      Cu  0.75713787  0.27517005  0.06554585     0.44200
Cu544      Cu  0.81687488  0.27149710  0.02867018     0.42000
Cu545      Cu  0.76422905  0.22389901  0.01818819     0.43900
N546        N  0.72554333  0.25713131  0.04808070    -0.34600
N547        N  0.72770094  0.23961948  0.02880962    -0.28800
C548        C  0.70389830  0.23679462  0.01714822    -0.04900
C549        C  0.68614153  0.25380717  0.02947581     0.07300
C550        C  0.70063016  0.26595624  0.04928105     0.01100
H551        H  0.70009113  0.22431796  0.00012878     0.08700
H552        H  0.69399491  0.28097295  0.06298305     0.07800
N553        N  0.80404364  0.21495328  0.01280524    -0.36000
N554        N  0.82327429  0.23211957  0.01644533    -0.28200
C555        C  0.84637988  0.21994681  0.01112544    -0.03400
C556        C  0.84157657  0.19390442  0.00358377     0.05200
C557        C  0.81441942  0.19155750  0.00519226     0.03300
H558        H  0.86532241  0.22952188  0.01216139     0.08400
H559        H  0.80289926  0.17405402  0.00137991     0.07200
O560        O  0.52089907  0.06330096  0.24764448    -0.72800
O561        O  0.52545441  0.98267827  0.25150147    -0.73800
O562        O  0.48446790  0.02114906  0.24840608    -0.62400
O563        O  0.56200952  0.02468824  0.24831007    -0.70800
O564        O  0.56385844  0.02510673  0.29231632    -0.70400
O565        O  0.48310445  0.02426973  0.29226515    -0.61700
O566        O  0.52397486  0.98550458  0.29559186    -0.74200
O567        O  0.52295171  0.06386808  0.29184903    -0.72900
Cu568      Cu  0.52320714  0.02288662  0.24746340     1.04600
Cu569      Cu  0.52349724  0.02473758  0.29458250     1.04300
C570        C  0.52147831  0.07607679  0.26962512     0.93400
C571        C  0.52498196  0.97162916  0.27457034     0.92500
C572        C  0.47115291  0.02251793  0.26967597     0.84600
C573        C  0.57557862  0.02529552  0.26974144     0.90900
N574        N  0.80890180  0.03246526  0.31228522    -0.27200
N575        N  0.78785841  0.04791862  0.31399237    -0.35000
C576        C  0.78121685  0.05073525  0.33960916     0.01200
C577        C  0.79884474  0.03650290  0.35525668     0.07200
C578        C  0.81635508  0.02523604  0.33725550    -0.05900
H579        H  0.76353789  0.06073639  0.34619828     0.07800
H580        H  0.83194656  0.01114099  0.34182710     0.09000
Cu581      Cu  0.76317569  0.05709306  0.28271216     0.44200
Cu582      Cu  0.82224989  0.01857748  0.27522022     0.42000
Cu583      Cu  0.76656515  0.01199315  0.22892441     0.43900
N584        N  0.73029388  0.04503050  0.26240912    -0.34600
N585        N  0.73083869  0.02693081  0.24355265    -0.28800
C586        C  0.70590310  0.01936513  0.23842819    -0.04900
C587        C  0.68901341  0.03336293  0.25506817     0.07300
C588        C  0.70536233  0.04936719  0.26993136     0.01100
H589        H  0.70066312  0.00370526  0.22482381     0.08700
H590        H  0.69973374  0.06218419  0.28614120     0.07800
N591        N  0.80573799  0.00297829  0.21910041    -0.36000
N592        N  0.82609929  0.00600315  0.23543679    -0.28200
C593        C  0.84832224  0.99924480  0.22240685    -0.03400
C594        C  0.84173094  0.99148934  0.19664686     0.05200
C595        C  0.81449993  0.99400037  0.19552309     0.03300
H596        H  0.86779231  0.99928311  0.23129142     0.08400
H597        H  0.80191786  0.98974193  0.17861374     0.07200
N598        N  0.52618510  0.30012874  0.22470003    -0.27200
N599        N  0.50711949  0.28252969  0.22409572    -0.35000
C600        C  0.50338263  0.27414471  0.19906853     0.01200
C601        C  0.52077366  0.28709476  0.18262885     0.07200
C602        C  0.53498640  0.30356958  0.19960923    -0.05900
H603        H  0.48984510  0.25865760  0.19350660     0.07800
H604        H  0.55145819  0.31594315  0.19441093     0.09000
Cu605      Cu  0.49277988  0.26412503  0.25729137     0.44200
Cu606      Cu  0.54034181  0.31508444  0.26107831     0.42000
Cu607      Cu  0.53452604  0.26594445  0.31454913     0.43900
N608        N  0.50186393  0.23108091  0.27945320    -0.34600
N609        N  0.51871701  0.23079172  0.29960867    -0.28800
C610        C  0.52559184  0.20537539  0.30488013    -0.04900
C611        C  0.51285192  0.18905185  0.28660204     0.07300
C612        C  0.49779054  0.20626237  0.27114763     0.01100
H613        H  0.53965708  0.19951386  0.32012538     0.08700
H614        H  0.48669806  0.20142540  0.25336520     0.07800
N615        N  0.54600599  0.30523355  0.32081377    -0.36000
N616        N  0.54820388  0.32306693  0.30148402    -0.28200
C617        C  0.55531494  0.34636863  0.31232346    -0.03400
C618        C  0.55749042  0.34329777  0.33983402     0.05200
C619        C  0.55161680  0.31678456  0.34432069     0.03300
H620        H  0.55837034  0.36440308  0.30100920     0.08400
H621        H  0.55180265  0.30641888  0.36325327     0.07200
O622        O  0.30648082  0.02409468  0.48179073    -0.72800
O623        O  0.30597553  0.03518542  0.56176941    -0.73800
O624        O  0.30696231  0.99075961  0.52733710    -0.62400
O625        O  0.30729860  0.06846045  0.51561738    -0.70800
O626        O  0.26367453  0.07029878  0.51441157    -0.70400
O627        O  0.26340304  0.99045620  0.52690104    -0.61700
O628        O  0.26229876  0.03649076  0.55975622    -0.74200
O629        O  0.26273021  0.02476874  0.48211767    -0.72900
Cu630      Cu  0.30820278  0.02960588  0.52176307     1.04600
Cu631      Cu  0.26148907  0.03048753  0.52089299     1.04300
C632        C  0.28428944  0.02283267  0.46960960     0.93400
C633        C  0.28364579  0.03792908  0.57309858     0.92500
C634        C  0.28550691  0.97800432  0.52855778     0.84600
C635        C  0.28602437  0.08166660  0.51226602     0.90900
N636        N  0.32173460  0.03532240  0.79704440    -0.27200
N637        N  0.32161151  0.05508201  0.77963866    -0.35000
C638        C  0.34603172  0.05901568  0.77072949     0.01200
C639        C  0.36296267  0.04127809  0.78331106     0.07200
C640        C  0.34675825  0.02638157  0.79988094    -0.05900
H641        H  0.35049469  0.07213308  0.75428965     0.07800
H642        H  0.35253697  0.00952153  0.81210181     0.09000
Cu643      Cu  0.28868406  0.07022787  0.76109895     0.44200
Cu644      Cu  0.28647225  0.01989949  0.81192654     0.42000
Cu645      Cu  0.23598317  0.02598630  0.76019599     0.43900
N646        N  0.26867636  0.06163264  0.72676744    -0.34600
N647        N  0.25053586  0.04309175  0.72567704    -0.28800
C648        C  0.24711449  0.03592458  0.70009176    -0.04900
C649        C  0.26395923  0.05087691  0.68464352     0.07300
C650        C  0.27725776  0.06693105  0.70212922     0.01100
H651        H  0.23468635  0.01991446  0.69347554     0.08700
H652        H  0.29387069  0.07941153  0.69763429     0.07800
N653        N  0.22856483  0.01338938  0.79889021    -0.36000
N654        N  0.24664815  0.01086768  0.81790582    -0.28200
C655        C  0.23488222  0.00218009  0.84031509    -0.03400
C656        C  0.20820123  0.99888107  0.83505745     0.05200
C657        C  0.20503289  0.00652899  0.80863801     0.03300
H658        H  0.24506438  0.99806811  0.85893194     0.08400
H659        H  0.18688946  0.00723889  0.79721791     0.07200
O660        O  0.02626444  0.25024796  0.55796912    -0.72800
O661        O  0.02639066  0.24865115  0.47896624    -0.73800
O662        O  0.06671097  0.25071686  0.51864034    -0.62400
O663        O  0.98627248  0.25086750  0.51812016    -0.70800
O664        O  0.98722073  0.29472116  0.51727949    -0.70400
O665        O  0.06497765  0.29455148  0.51664334    -0.61700
O666        O  0.02535647  0.29243152  0.47616299    -0.74200
O667        O  0.02700183  0.29425099  0.55773854    -0.72900
Cu668      Cu  0.02643232  0.24859531  0.51846621     1.04600
Cu669      Cu  0.02612099  0.29550767  0.51691459     1.04300
C670        C  0.02673445  0.27209117  0.57046747     0.93400
C671        C  0.02565727  0.26970634  0.46478990     0.92500
C672        C  0.07843262  0.27314890  0.51758596     0.84600
C673        C  0.97416303  0.27332016  0.51757254     0.90900
N674        N  0.02171306  0.31651805  0.79188586    -0.27200
N675        N  0.04154522  0.31747083  0.77520779    -0.35000
C676        C  0.04399759  0.34225172  0.76574763     0.01200
C677        C  0.02441193  0.35788764  0.77669280     0.07200
C678        C  0.01084253  0.34085337  0.79352201    -0.05900
H679        H  0.05859407  0.34800187  0.75136485     0.07800
H680        H  0.99372431  0.34552558  0.80530245     0.09000
Cu681      Cu  0.05793847  0.28398614  0.75942481     0.44200
Cu682      Cu  0.01017521  0.28081598  0.80860980     0.42000
Cu683      Cu  0.01755727  0.22594493  0.76268150     0.43900
N684        N  0.04829857  0.26194555  0.72677160    -0.34600
N685        N  0.03180365  0.24185727  0.72658976    -0.28800
C686        C  0.02507577  0.23700466  0.70091611    -0.04900
C687        C  0.03809224  0.25500596  0.68442573     0.07300
C688        C  0.05225489  0.27052175  0.70185601     0.01100
H689        H  0.01093819  0.22230006  0.69476881     0.08700
H690        H  0.06268917  0.28852341  0.69717377     0.07800
N691        N  0.00833877  0.22102682  0.80337299    -0.36000
N692        N  0.00600757  0.24135866  0.81972778    -0.28200
C693        C  0.00011770  0.23242223  0.84421772    -0.03400
C694        C  0.99806466  0.20505261  0.84354970     0.05200
C695        C  0.00375211  0.19850459  0.81730267     0.03300
H696        H  0.99727919  0.24512559  0.86123110     0.08400
H697        H  0.00365275  0.17886743  0.80878163     0.07200
N698        N  0.30887886  0.23571622  0.49210525    -0.27200
N699        N  0.28634254  0.23462849  0.47882422    -0.35000
C700        C  0.27846498  0.20938312  0.47729728     0.01200
C701        C  0.29692074  0.19358983  0.49005007     0.07200
C702        C  0.31615187  0.21079173  0.49908730    -0.05900
H703        H  0.25955628  0.20325188  0.46953597     0.07800
H704        H  0.33289758  0.20579684  0.51166788     0.09000
Cu705      Cu  0.26209570  0.26656951  0.47180737     0.44200
Cu706      Cu  0.32447196  0.27185606  0.50461236     0.42000
Cu707      Cu  0.26976881  0.31644531  0.52039948     0.43900
N708        N  0.23060184  0.28510151  0.48892467    -0.34600
N709        N  0.23287936  0.30199897  0.50873422    -0.28800
C710        C  0.20895715  0.30542356  0.51971296    -0.04900
C711        C  0.19086424  0.28977525  0.50604768     0.07300
C712        C  0.20554535  0.27728282  0.48670095     0.01100
H713        H  0.20543367  0.31714658  0.53728202     0.08700
H714        H  0.19886789  0.26238197  0.47286783     0.07800
N715        N  0.30959886  0.32667692  0.52383593    -0.36000
N716        N  0.32946678  0.31092048  0.51742136    -0.28200
C717        C  0.35221543  0.32401159  0.52128463    -0.03400
C718        C  0.34660619  0.34938027  0.53054649     0.05200
C719        C  0.31925522  0.34999343  0.53215962     0.03300
H720        H  0.37147800  0.31551091  0.51780263     0.08400
H721        H  0.30704478  0.36582994  0.53969353     0.07200
N722        N  0.01185854  0.30751247  0.23541134    -0.27200
N723        N  0.99370055  0.30783876  0.25402335    -0.35000
C724        C  0.98906448  0.33293742  0.26141307     0.01200
C725        C  0.00565216  0.34946229  0.24736511     0.07200
C726        C  0.01949881  0.33257218  0.23064532    -0.05900
H727        H  0.97563923  0.33829026  0.27706268     0.07800
H728        H  0.03524391  0.33787219  0.21732010     0.09000
Cu729      Cu  0.98433863  0.27506058  0.27638239     0.44200
Cu730      Cu  0.02769127  0.27231750  0.22104641     0.42000
Cu731      Cu  0.03291423  0.22252320  0.27241815     0.43900
N732        N  0.99953913  0.25560566  0.30929548    -0.34600
N733        N  0.01878931  0.23786141  0.30843895    -0.28800
C734        C  0.02855308  0.23444688  0.33333330    -0.04900
C735        C  0.01474718  0.25089063  0.35065382     0.07300
C736        C  0.99653994  0.26388670  0.33444820     0.01100
H737        H  0.04562489  0.22230294  0.33801473     0.08700
H738        H  0.98308458  0.27953283  0.34016378     0.07800
N739        N  0.04235338  0.21522086  0.23245054    -0.36000
N740        N  0.03991529  0.23361071  0.21368880    -0.28200
C741        C  0.04623995  0.22307510  0.19002802    -0.03400
C742        C  0.05364404  0.19668399  0.19379787     0.05200
C743        C  0.05064888  0.19249883  0.22110684     0.03300
H744        H  0.04467664  0.23390282  0.17144705     0.08400
H745        H  0.05428945  0.17424495  0.23202054     0.07200
N746        N  0.31577235  0.01702482  0.24620714    -0.27200
N747        N  0.31651782  0.99812905  0.26454535    -0.35000
C748        C  0.34140101  0.99444634  0.27311770     0.01200
C749        C  0.35738906  0.01205826  0.25977226     0.07200
C750        C  0.34045828  0.02578991  0.24249257    -0.05900
H751        H  0.34708567  0.98069051  0.28879802     0.07800
H752        H  0.34552131  0.04196460  0.22928134     0.09000
Cu753      Cu  0.28369144  0.98468785  0.28367464     0.44200
Cu754      Cu  0.28015097  0.03198702  0.23085515     0.42000
Cu755      Cu  0.23076507  0.03258077  0.28203054     0.43900
N756        N  0.26381958  0.99653195  0.31690083    -0.34600
N757        N  0.24621105  0.01596847  0.31705552    -0.28800
C758        C  0.24359943  0.02451674  0.34227726    -0.04900
C759        C  0.26065772  0.00983871  0.35852068     0.07300
C760        C  0.27279292  0.99213020  0.34174052     0.01100
H761        H  0.23133222  0.04110148  0.34804379     0.08700
H762        H  0.28914026  0.97906192  0.34672408     0.07800
N763        N  0.22292509  0.04376326  0.24262646    -0.36000
N764        N  0.24090537  0.04313319  0.22374397    -0.28200
C765        C  0.22942050  0.04994574  0.20034057    -0.03400
C766        C  0.20297640  0.05543893  0.20464002     0.05200
C767        C  0.19962814  0.05115279  0.23174727     0.03300
H768        H  0.23956367  0.05073699  0.18150165     0.08400
H769        H  0.18141064  0.05238525  0.24265771     0.07200
N770        N  0.24412928  0.30558006  0.01962443    -0.27200
N771        N  0.26166021  0.30720507  0.00051873    -0.35000
C772        C  0.26796299  0.33267039  0.99650528     0.01200
C773        C  0.25357991  0.34806372  0.01389498     0.07200
C774        C  0.23862860  0.33014486  0.02833346    -0.05900
H775        H  0.28316577  0.33926055  0.98311094     0.07800
H776        H  0.22613853  0.33435732  0.04513065     0.09000
Cu777      Cu  0.28243566  0.27487018  0.98784339     0.44200
Cu778      Cu  0.23258358  0.26915002  0.03449951     0.42000
Cu779      Cu  0.28350313  0.21769635  0.03157378     0.43900
N780        N  0.31591868  0.25418507  0.99777277    -0.34600
N781        N  0.31745203  0.23446062  0.01519164    -0.28800
C782        C  0.34309990  0.23033984  0.02142648    -0.26100
C783        C  0.35817485  0.24843585  0.00714951     0.07300
C784        C  0.34002619  0.26324188  0.99268728     0.01100
H785        H  0.35014688  0.21611051  0.03612328     0.08700
H786        H  0.34366606  0.28106915  0.98126185     0.07800
N787        N  0.24434069  0.21049262  0.04231926    -0.36000
N788        N  0.22622522  0.22947536  0.04310097    -0.28200
C789        C  0.20301582  0.21889889  0.04969279    -0.03400
C790        C  0.20641181  0.19189892  0.05374333     0.05200
C791        C  0.23289258  0.18722057  0.04858457     0.03300
H792        H  0.18486227  0.23014947  0.05091368     0.08400
H793        H  0.24310790  0.16832120  0.04952016     0.07200
C794        C  0.41064333  0.45353359  0.62538262     0.86600
C795        C  0.39646061  0.43863376  0.60306385    -0.53600
C796        C  0.41221036  0.42432895  0.58634219     0.09500
C797        C  0.44190513  0.42704401  0.59350794     0.20500
C798        C  0.42791382  0.43264767  0.63947456    -0.54400
C799        C  0.44397721  0.41851358  0.62326104     0.09600
C800        C  0.43052893  0.47109921  0.61026610    -0.53900
C801        C  0.44698466  0.45740343  0.59353159     0.10200
H802        H  0.37513320  0.43858101  0.60155510     0.14700
H803        H  0.45551336  0.41620951  0.58028650     0.00400
H804        H  0.42704559  0.42884418  0.66079142     0.15000
H805        H  0.43154154  0.49245332  0.61182336     0.14800
C806        C  0.59368400  0.45377854  0.45356145     0.86600
C807        C  0.57869693  0.43702347  0.43273345    -0.53600
C808        C  0.59442440  0.42180414  0.41672909     0.09500
C809        C  0.62396193  0.42461442  0.42309159     0.20500
C810        C  0.61122310  0.43332588  0.46885693    -0.54400
C811        C  0.62690375  0.41770271  0.45302173     0.09600
C812        C  0.61384281  0.46960649  0.43675554    -0.53900
C813        C  0.62956540  0.45445915  0.42100957     0.10200
H814        H  0.55738573  0.43708962  0.43096706     0.14700
H815        H  0.63645741  0.41233791  0.40993628     0.00400
H816        H  0.61161720  0.43207348  0.49043602     0.15000
H817        H  0.61668852  0.49078422  0.43716901     0.14800
C818        C  0.59056365  0.58951500  0.59026635     0.86600
C819        C  0.57275771  0.60552625  0.60917731    -0.53600
C820        C  0.58585033  0.62255567  0.62554941     0.09500
C821        C  0.61575745  0.62250278  0.62143174     0.20500
C822        C  0.60681601  0.61072255  0.57531913    -0.54400
C823        C  0.61965366  0.62830141  0.59156544     0.09600
C824        C  0.61118252  0.57623204  0.60917181    -0.53900
C825        C  0.62441605  0.59343564  0.62532919     0.10200
H826        H  0.55151627  0.60340625  0.60964797     0.14700
H827        H  0.62612267  0.63647727  0.63477311     0.00400
H828        H  0.60812063  0.61163668  0.55375643     0.15000
H829        H  0.61568814  0.55527901  0.61006184     0.14800
C830        C  0.44771143  0.58833455  0.45701461     0.86600
C831        C  0.46400148  0.60680075  0.43879156    -0.53600
C832        C  0.44915442  0.62291136  0.42238055     0.09500
C833        C  0.41947718  0.61896821  0.42525652     0.20500
C834        C  0.42879854  0.60787118  0.47155881    -0.54400
C835        C  0.41418449  0.62389754  0.45479593     0.09600
C836        C  0.42914290  0.57332438  0.43788457    -0.53900
C837        C  0.41462793  0.58929768  0.42107737     0.10200
H838        H  0.48532128  0.60783346  0.43974046     0.14700
H839        H  0.40760727  0.63193853  0.41170060     0.00400
H840        H  0.42642987  0.60920373  0.49286163     0.15000
H841        H  0.42757496  0.55186592  0.43774909     0.14800
C842        C  0.52056214  0.51847447  0.52383793    -0.02400
C843        C  0.46534883  0.56935248  0.47439978    -0.00100
C844        C  0.46473731  0.56946005  0.50250000    -0.11900
C845        C  0.48135465  0.55307548  0.51829158     0.02200
C846        C  0.50035767  0.53579096  0.50651095    -0.00100
C847        C  0.49943981  0.53443122  0.47831846    -0.11900
C848        C  0.48289747  0.55091051  0.46259250     0.02100
H849        H  0.45148461  0.58245110  0.51288391     0.15100
H850        H  0.51148345  0.52023169  0.46789205     0.15100
C851        C  0.48441463  0.54808721  0.43404264     0.36700
C852        C  0.47893177  0.55572920  0.54681633     0.36600
N853        N  0.48569017  0.54551510  0.41120544    -0.43600
N854        N  0.47671007  0.55847972  0.56956026    -0.43600
C855        C  0.57409284  0.57103332  0.57180304    -0.00100
C856        C  0.57614326  0.54305884  0.57306670    -0.11900
C857        C  0.55975534  0.52633061  0.55790895     0.02200
C858        C  0.53958267  0.53690786  0.54083350    -0.00100
C859        C  0.53882668  0.56500364  0.53854354    -0.11900
C860        C  0.55519216  0.58165671  0.55365086     0.02100
H861        H  0.59021770  0.53347085  0.58615645     0.15100
H862        H  0.52588963  0.57470801  0.52430977     0.15100
C863        C  0.55201246  0.60993964  0.54984187     0.36700
C864        C  0.56387810  0.49809258  0.56116522     0.36600
N865        N  0.54951491  0.63257938  0.54667616    -0.43600
N866        N  0.56733778  0.47555010  0.56417395    -0.43600
C867        C  0.57496828  0.47033222  0.47193668    -0.00100
C868        C  0.57502935  0.49834521  0.47194926    -0.11900
C869        C  0.55811957  0.51358727  0.48798023     0.02200
C870        C  0.53971630  0.50143372  0.50552699    -0.00100
C871        C  0.54045573  0.47328395  0.50619478    -0.11900
C872        C  0.55668181  0.45809181  0.48923479     0.02100
H873        H  0.58775442  0.50925734  0.45895602     0.15100
H874        H  0.52834675  0.46247450  0.51999078     0.15100
C875        C  0.55318279  0.42973261  0.48939876     0.36700
C876        C  0.55993692  0.54202842  0.48488615     0.36600
N877        N  0.54972471  0.40709216  0.48923465    -0.43600
N878        N  0.56172529  0.56469333  0.48170517    -0.43600
C879        C  0.46712437  0.47114146  0.57646524    -0.00100
C880        C  0.46637961  0.46825752  0.54871148    -0.11900
C881        C  0.48319321  0.48278972  0.53181365     0.02200
C882        C  0.50259366  0.50042967  0.54238788    -0.00100
C883        C  0.50303673  0.50273002  0.57063011    -0.11900
C884        C  0.48593607  0.48848462  0.58730385     0.02100
H885        H  0.45182366  0.45521355  0.54002733     0.15100
H886        H  0.51588224  0.51663289  0.58033252     0.15100
C887        C  0.48822769  0.49200591  0.61576279     0.36700
C888        C  0.47958291  0.47911205  0.50351940     0.36600
N889        N  0.49002862  0.49479552  0.63856873    -0.43600
N890        N  0.47653303  0.47573473  0.48092391    -0.43600
C891        C  0.36573705  0.37015729  0.53950580    -0.00100
C892        C  0.39136343  0.36260304  0.54765258    -0.11900
C893        C  0.40852699  0.38064623  0.56003654     0.02200
C894        C  0.39978385  0.40675966  0.56555016    -0.00100
C895        C  0.37570215  0.41511004  0.55397142    -0.11900
C896        C  0.35884954  0.39735344  0.54108950     0.02100
H897        H  0.39780035  0.34221885  0.54538710     0.15100
H898        H  0.36941717  0.43560804  0.55590619     0.15100
C899        C  0.33479527  0.40797508  0.52961174     0.36700
C900        C  0.43453915  0.37127598  0.56717740     0.36600
N901        N  0.31560869  0.41678406  0.52046303    -0.43600
N902        N  0.45544672  0.36341037  0.57236585    -0.43600
C903        C  0.16248661  0.28499202  0.51163407    -0.00100
C904        C  0.15162809  0.26013038  0.50535642    -0.11900
C905        C  0.12458756  0.25526032  0.50788024     0.02200
C906        C  0.10767928  0.27544784  0.51719882    -0.00100
C907        C  0.11876117  0.29990153  0.52448956    -0.11900
C908        C  0.14564976  0.30489679  0.52162220     0.02100
H909        H  0.16422240  0.24442930  0.49795742     0.15100
H910        H  0.10617999  0.31569041  0.53178646     0.15100
C911        C  0.15481357  0.33126559  0.52740318     0.36700
C912        C  0.11471297  0.22993166  0.49931953     0.36600
N913        N  0.16192218  0.35249863  0.53200603    -0.43600
N914        N  0.10688035  0.20963791  0.49231702    -0.43600
C915        C  0.02491348  0.26667273  0.43514944    -0.00100
C916        C  0.03199156  0.24183260  0.42452734    -0.11900
C917        C  0.02925070  0.23632835  0.39732822     0.02200
C918        C  0.01960755  0.25607290  0.37960060    -0.00100
C919        C  0.01336915  0.28125293  0.39001286    -0.11900
C920        C  0.01578404  0.28665303  0.41737667     0.02100
H921        H  0.03912863  0.22614938  0.43768893     0.15100
H922        H  0.00623112  0.29685710  0.37679060     0.15100
C923        C  0.00756090  0.31244208  0.42660565     0.36700
C924        C  0.03495032  0.20965186  0.38874333     0.36600
N925        N  0.00084619  0.33311906  0.43389891    -0.43600
N926        N  0.03949760  0.18817883  0.38210252    -0.43600
C927        C  0.02797211  0.27086030  0.59988804    -0.00100
C928        C  0.05191648  0.27631747  0.61253618    -0.11900
C929        C  0.05581182  0.27064384  0.63968148     0.02200
C930        C  0.03513285  0.25982525  0.65509078    -0.00100
C931        C  0.01099234  0.25461356  0.64230295    -0.11900
C932        C  0.00737634  0.25985775  0.61494078     0.02100
H933        H  0.06812607  0.28379548  0.60082086     0.15100
H934        H  0.99484091  0.24658202  0.65367746     0.15100
C935        C  0.98232098  0.25394922  0.60264571     0.36700
C936        C  0.08187578  0.27459079  0.65055183     0.36600
N937        N  0.96224419  0.24933260  0.59273006    -0.43600
N938        N  0.10281348  0.27778090  0.65914278    -0.43600
C939        C  0.28794193  0.11022620  0.50551148    -0.00100
C940        C  0.27012879  0.12844563  0.51644203    -0.11900
C941        C  0.27299861  0.15576056  0.51202056     0.02200
C942        C  0.29397449  0.16516002  0.49636221    -0.00100
C943        C  0.31135549  0.14699330  0.48490359    -0.11900
C944        C  0.30829488  0.11972072  0.48896919     0.02100
H945        H  0.25426744  0.12140726  0.52882900     0.15100
H946        H  0.32691141  0.15411623  0.47211573     0.15100
C947        C  0.32534758  0.10185810  0.47462738     0.36700
C948        C  0.25464620  0.17380227  0.52436234     0.36600
N949        N  0.33877586  0.08749213  0.46294449    -0.43600
N950        N  0.23996982  0.18826633  0.53429169    -0.43600
C951        C  0.28266724  0.01931400  0.44074084    -0.00100
C952        C  0.27872727  0.04182972  0.42465840    -0.11900
C953        C  0.27154894  0.03938465  0.39779772     0.02200
C954        C  0.26796637  0.01391726  0.38680400    -0.00100
C955        C  0.27280989  0.99141436  0.40287043    -0.11900
C956        C  0.27987864  0.99393357  0.42972014     0.02100
H957        H  0.28056051  0.06138355  0.43333201     0.15100
H958        H  0.27040124  0.97177281  0.39458628     0.15100
C959        C  0.28317596  0.97028497  0.44586679     0.36700
C960        C  0.26873873  0.06328874  0.38200395     0.36600
N961        N  0.28579511  0.95134152  0.45880667    -0.43600
N962        N  0.26660903  0.08256112  0.36947964    -0.43600
C963        C  0.28166459  0.04295672  0.60184165    -0.00100
C964        C  0.29164798  0.02417507  0.62011917    -0.11900
C965        C  0.28600539  0.02631888  0.64733032     0.02200
C966        C  0.27020728  0.04752501  0.65634603    -0.00100
C967        C  0.26132278  0.06689450  0.63827325    -0.11900
C968        C  0.26681187  0.06472833  0.61116516     0.02100
H969        H  0.30302895  0.00739549  0.61303821     0.15100
H970        H  0.24983825  0.08361473  0.64534815     0.15100
C971        C  0.25722896  0.08529524  0.59332692     0.36700
C972        C  0.29678699  0.00679020  0.66565694     0.36600
N973        N  0.24957706  0.10193587  0.57920751    -0.43600
N974        N  0.30554539  0.99122784  0.68037926    -0.43600
C975        C  0.56573925  0.36378788  0.35968414    -0.00100
C976        C  0.58448500  0.38261570  0.35212687    -0.11900
C977        C  0.59372755  0.40177172  0.37001570     0.02200
C978        C  0.58398784  0.40282505  0.39632615    -0.00100
C979        C  0.56460545  0.38450993  0.40371046    -0.11900
C980        C  0.55555087  0.36511325  0.38583683     0.02100
H981        H  0.59243463  0.38209104  0.33215911     0.15100
H982        H  0.55682943  0.38501713  0.42375332     0.15100
C983        C  0.53520680  0.34744080  0.39472327     0.36700
C984        C  0.61286199  0.42025080  0.36020778     0.36600
N985        N  0.51886671  0.33333450  0.40194795    -0.43600
N986        N  0.62824312  0.43443449  0.35124132    -0.43600
C987        C  0.51618922  0.16009595  0.28151306    -0.00100
C988        C  0.49515644  0.14639372  0.26950635    -0.11900
C989        C  0.49710674  0.11930190  0.26373450     0.02200
C990        C  0.52031002  0.10524044  0.27028510    -0.00100
C991        C  0.54148208  0.11875753  0.28180948    -0.11900
C992        C  0.53986645  0.14598672  0.28701391     0.02100
H993        H  0.47682894  0.15672015  0.26504059     0.15100
H994        H  0.55935804  0.10787007  0.28694396     0.15100
C995        C  0.56321515  0.15877073  0.29697677     0.36700
C996        C  0.47460255  0.10606863  0.25236676     0.36600
N997        N  0.58215913  0.16876283  0.30480395    -0.43600
N998        N  0.45656399  0.09547773  0.24325840    -0.43600
C999        C  0.44179843  0.02163079  0.26751175    -0.00100
C1000       C  0.42677566  0.01598042  0.29018305    -0.11900
C1001       C  0.39929638  0.01326011  0.28843158     0.02200
C1002       C  0.38621760  0.01599055  0.26346725    -0.00100
C1003       C  0.40106388  0.02259790  0.24108637    -0.11900
C1004       C  0.42836721  0.02550776  0.24277314     0.02100
H1005       H  0.43651549  0.01339354  0.30935123     0.15100
H1006       H  0.39131837  0.02507476  0.22189751     0.15100
C1007       C  0.44171391  0.03276382  0.21852808     0.36700
C1008       C  0.38510285  0.00876776  0.31280425     0.36600
N1009       N  0.45224003  0.03857750  0.19901624    -0.43600
N1010       N  0.37386136  0.00527608  0.33245322    -0.43600
C1011       C  0.60491943  0.02635410  0.26725544    -0.00100
C1012       C  0.61574074  0.02409757  0.24154238    -0.11900
C1013       C  0.64282340  0.02601880  0.23716190     0.02200
C1014       C  0.66013776  0.03021261  0.25876640    -0.00100
C1015       C  0.64955883  0.03224253  0.28453243    -0.11900
C1016       C  0.62235732  0.03025717  0.28897472     0.02100
H1017       H  0.60296582  0.02113896  0.22442326     0.15100
H1018       H  0.66262949  0.03527243  0.30140875     0.15100
C1019       C  0.61313219  0.03257013  0.31596882     0.36700
C1020       C  0.65200509  0.02498508  0.21004430     0.36600
N1021       N  0.60587031  0.03438565  0.33767025    -0.43600
N1022       N  0.65924514  0.02419520  0.18826872    -0.43600
C1023       C  0.52486110  0.27245458  0.09774222    -0.00100
C1024       C  0.52986861  0.29790457  0.10807015    -0.11900
C1025       C  0.52946356  0.30295518  0.13544577     0.02200
C1026       C  0.52400901  0.28230070  0.15355467    -0.00100
C1027       C  0.51994880  0.25661294  0.14347993    -0.11900
C1028       C  0.52047952  0.25149218  0.11597595     0.02100
H1029       H  0.53364266  0.31435412  0.09465075     0.15100
H1030       H  0.51613959  0.24039220  0.15716464     0.15100
C1031       C  0.51592359  0.22470659  0.10724736     0.36700
C1032       C  0.53314618  0.32992355  0.14407990     0.36600
N1033       N  0.51234733  0.20317178  0.10037245    -0.43600
N1034       N  0.53608585  0.35159033  0.15085312    -0.43600
C1035       C  0.44074698  0.26645515  0.01564705    -0.00100
C1036       C  0.42779403  0.27127566  0.99139196    -0.11900
C1037       C  0.40125877  0.26478978  0.98797034     0.02200
C1038       C  0.38682280  0.25407290  0.00952602    -0.00100
C1039       C  0.39989670  0.24956425  0.03397574    -0.11900
C1040       C  0.42671112  0.25533550  0.03704088     0.02100
H1041       H  0.43888619  0.27865113  0.97455763     0.15100
H1042       H  0.38922457  0.24148840  0.05073327     0.15100
C1043       C  0.43959735  0.24941800  0.06218911     0.36700
C1044       C  0.39013010  0.26748095  0.96150336     0.36600
N1045       N  0.45002031  0.24467030  0.08228347    -0.43600
N1046       N  0.38135642  0.26955278  0.94022147    -0.43600
C1047       C  0.60271199  0.26334690  0.01464639    -0.00100
C1048       C  0.61774604  0.28533383  0.02208277    -0.11900
C1049       C  0.64502737  0.28309621  0.02601304     0.02200
C1050       C  0.65787054  0.25827321  0.02278232    -0.00100
C1051       C  0.64314859  0.23677599  0.01365907    -0.11900
C1052       C  0.61596689  0.23901807  0.00947186     0.02100
H1053       H  0.60811415  0.30426595  0.02549509     0.15100
H1054       H  0.65277332  0.21778267  0.01054967     0.15100
C1055       C  0.60246172  0.21578111  0.99995983     0.36700
C1056       C  0.65920025  0.30686334  0.03265727     0.36600
N1057       N  0.59176908  0.19708937  0.99236770    -0.43600
N1058       N  0.67036007  0.32605860  0.03793032    -0.43600
C1059       C  0.39466349  0.57926285  0.40165401    -0.00100
C1060       C  0.37493461  0.56203431  0.41048950    -0.11900
C1061       C  0.35488186  0.55339748  0.39315492     0.02200
C1062       C  0.35434626  0.56194138  0.36618989    -0.00100
C1063       C  0.37433756  0.57888614  0.35742920    -0.11900
C1064       C  0.39424577  0.58753806  0.37471169     0.02100
H1065       H  0.37499785  0.55554453  0.43113964     0.15100
H1066       H  0.37439746  0.58563211  0.33686977     0.15100
C1067       C  0.41443471  0.60416267  0.36372182     0.36700
C1068       C  0.33581324  0.53506392  0.40348736     0.36600
N1069       N  0.43028113  0.61740472  0.35414669    -0.43600
N1070       N  0.32061473  0.52034609  0.41195005    -0.43600
C1071       C  0.10040155  0.51154863  0.26996900    -0.00100
C1072       C  0.10919616  0.51115295  0.29675297    -0.11900
C1073       C  0.13590421  0.50888156  0.30345274     0.02200
C1074       C  0.15476326  0.50683994  0.28321330    -0.00100
C1075       C  0.14622394  0.50729995  0.25645319    -0.11900
C1076       C  0.11944039  0.50979193  0.24966436     0.02100
H1077       H  0.09514195  0.51236090  0.31282591     0.15100
H1078       H  0.16059887  0.50598230  0.24067503     0.15100
C1079       C  0.11234555  0.51056897  0.22175858     0.36700
C1080       C  0.14321077  0.50745728  0.33130564     0.36600
N1081       N  0.10677483  0.51126995  0.19935341    -0.43600
N1082       N  0.14896491  0.50627764  0.35364822    -0.43600
C1083       C  0.01649389  0.43421936  0.25448389    -0.00100
C1084       C  0.00832500  0.41938265  0.27661269    -0.11900
C1085       C  0.00524167  0.39183466  0.27515760     0.02200
C1086       C  0.00962493  0.37849032  0.25078719    -0.00100
C1087       C  0.01864678  0.39321005  0.22895645    -0.11900
C1088       C  0.02247242  0.42057559  0.23060515     0.02100
H1089       H  0.00428562  0.42931569  0.29524322     0.15100
H1090       H  0.02263629  0.38333749  0.21028852     0.15100
C1091       C  0.03320208  0.43370576  0.20748448     0.36700
C1092       C  0.99890571  0.37798816  0.29949278     0.36600
N1093       N  0.04194419  0.44405265  0.18894931    -0.43600
N1094       N  0.99396773  0.36715922  0.31921036    -0.43600
C1095       C  0.02112995  0.59784382  0.25620615    -0.00100
C1096       C  0.02674541  0.61259016  0.27912067    -0.11900
C1097       C  0.02809648  0.64036095  0.27809922     0.02200
C1098       C  0.02392891  0.65402790  0.25358416    -0.00100
C1099       C  0.01761699  0.63930993  0.23090272    -0.11900
C1100       C  0.01608961  0.61167813  0.23190964     0.02100
H1101       H  0.03028437  0.60240188  0.29793675     0.15100
H1102       H  0.01413224  0.64942607  0.21203941     0.15100
C1103       C  0.00866785  0.59839443  0.20759040     0.36700
C1104       C  0.03277034  0.65404324  0.30282333     0.36600
N1105       N  0.00263615  0.58788167  0.18807539    -0.43600
N1106       N  0.03651949  0.66474449  0.32280471    -0.43600
C1107       C  0.28131289  0.51071441  0.16098548    -0.00100
C1108       C  0.25565154  0.50657674  0.15108675    -0.11900
C1109       C  0.24975461  0.50850540  0.12377295     0.02200
C1110       C  0.26982227  0.51478292  0.10555345    -0.00100
C1111       C  0.29530516  0.51974888  0.11570065    -0.11900
C1112       C  0.30119718  0.51764629  0.14292532     0.02100
H1113       H  0.24000444  0.50166089  0.16474603     0.15100
H1114       H  0.31109931  0.52475497  0.10223566     0.15100
C1115       C  0.32816869  0.52119484  0.15138700     0.36700
C1116       C  0.22315101  0.50315212  0.11521543     0.36600
N1117       N  0.34985005  0.52399248  0.15796366    -0.43600
N1118       N  0.20177125  0.49881623  0.10853307    -0.43600
C1119       C  0.26249945  0.43257489  0.02317233    -0.00100
C1120       C  0.23809199  0.42042914  0.02793523    -0.11900
C1121       C  0.23474874  0.39314880  0.02512160     0.02200
C1122       C  0.25629634  0.37700988  0.01800614    -0.00100
C1123       C  0.28091110  0.38888979  0.01391187    -0.11900
C1124       C  0.28417828  0.41635960  0.01626332     0.02100
H1125       H  0.22108853  0.43237394  0.03317533     0.15100
H1126       H  0.29772097  0.37670933  0.00861274     0.15100
C1127       C  0.30971155  0.42720830  0.01048416     0.36700
C1128       C  0.20852438  0.38272645  0.02788131     0.36600
N1129       N  0.33018184  0.43583937  0.00573541    -0.43600
N1130       N  0.18744114  0.37452044  0.02997021    -0.43600
C1131       C  0.25616898  0.59599849  0.02428562    -0.00100
C1132       C  0.23187638  0.60753328  0.01668135    -0.11900
C1133       C  0.22670579  0.63460071  0.02021379     0.02200
C1134       C  0.24628301  0.65104924  0.03125801    -0.00100
C1135       C  0.27089989  0.63960523  0.03800019    -0.11900
C1136       C  0.27588501  0.61245791  0.03491474     0.02100
H1137       H  0.21644640  0.59518404  0.00852827     0.15100
H1138       H  0.28644945  0.65177890  0.04608092     0.15100
C1139       C  0.30084167  0.60196057  0.04434773     0.36700
C1140       C  0.20063393  0.64432977  0.01362798     0.36600
N1141       N  0.32077454  0.59354021  0.05207557    -0.43600
N1142       N  0.17964384  0.65184717  0.00827372    -0.43600
C1143       C  0.46029395  0.39648502  0.63484046    -0.00100
C1144       C  0.48462736  0.40255175  0.64670469    -0.11900
C1145       C  0.49747668  0.38442637  0.66401540     0.02200
C1146       C  0.48613380  0.35950382  0.66951487    -0.00100
C1147       C  0.46252694  0.35292721  0.65651277    -0.11900
C1148       C  0.44931559  0.37129454  0.63986372     0.02100
H1149       H  0.49292523  0.42205509  0.64354816     0.15100
H1150       H  0.45353548  0.33392781  0.66064332     0.15100
C1151       C  0.42362460  0.36440387  0.62973483     0.36700
C1152       C  0.52223119  0.39188993  0.67596320     0.36600
N1153       N  0.40306583  0.35855037  0.62174264    -0.43600
N1154       N  0.54212529  0.39786423  0.68546859    -0.43600
C1155       C  0.52711545  0.28066005  0.87677423    -0.00100
C1156       C  0.52752877  0.25472375  0.88747285    -0.11900
C1157       C  0.52430127  0.24998275  0.91493953     0.02200
C1158       C  0.52087566  0.27154885  0.93247068    -0.00100
C1159       C  0.51957614  0.29735901  0.92138012    -0.11900
C1160       C  0.52274491  0.30204251  0.89410138     0.02100
H1161       H  0.53056137  0.23802954  0.87432841     0.15100
H1162       H  0.51681070  0.31436693  0.93417098     0.15100
C1163       C  0.52325396  0.32921906  0.88486138     0.36700
C1164       C  0.52503191  0.22289648  0.92441015     0.36600
N1165       N  0.52375865  0.35101635  0.87752512    -0.43600
N1166       N  0.52552428  0.20114228  0.93192050    -0.43600
C1167       C  0.53410297  0.15807851  0.75508256    -0.00100
C1168       C  0.53926208  0.14776184  0.78085370    -0.11900
C1169       C  0.53664312  0.12060964  0.78663153     0.02200
C1170       C  0.52868037  0.10312879  0.76637052    -0.00100
C1171       C  0.52249134  0.11370294  0.74099104    -0.11900
C1172       C  0.52526492  0.14062993  0.73514746     0.02100
H1173       H  0.54559187  0.16087433  0.79661860     0.15100
H1174       H  0.51598194  0.10069408  0.72517332     0.15100
C1175       C  0.52028247  0.14919315  0.70803788     0.36700
C1176       C  0.54325495  0.11124005  0.81311274     0.36600
N1177       N  0.51621106  0.15580038  0.68624413    -0.43600
N1178       N  0.54856399  0.10378883  0.83436989    -0.43600
C1179       C  0.60637496  0.01441916  0.78256970    -0.00100
C1180       C  0.61503856  0.00648553  0.80826772    -0.11900
C1181       C  0.64182457  0.00272280  0.81428379     0.02200
C1182       C  0.66073543  0.00683817  0.79442869    -0.00100
C1183       C  0.65225743  0.01500244  0.76886158    -0.11900
C1184       C  0.62549400  0.01893928  0.76281848     0.02100
H1185       H  0.60080515  0.00268809  0.82376471     0.15100
H1186       H  0.66668832  0.01851173  0.75347612     0.15100
C1187       C  0.61848024  0.02817393  0.73638447     0.36700
C1188       C  0.64925349  0.99329817  0.84054732     0.36600
N1189       N  0.61294620  0.03565849  0.71519522    -0.43600
N1190       N  0.65516543  0.98563524  0.86157194    -0.43600
C1191       C  0.44517860  0.02766650  0.76577251    -0.00100
C1192       C  0.43431893  0.05310269  0.76289188    -0.11900
C1193       C  0.40782814  0.05805757  0.76875968     0.02200
C1194       C  0.39137016  0.03702521  0.77714625    -0.00100
C1195       C  0.40229635  0.01135931  0.77931575    -0.11900
C1196       C  0.42898358  0.00664052  0.77396717     0.02100
H1197       H  0.44702114  0.06949975  0.75769054     0.15100
H1198       H  0.39008182  0.99493699  0.78543600     0.15100
C1199       C  0.43961820  0.98019216  0.77763950     0.36700
C1200       C  0.39891270  0.08531852  0.76799765     0.36600
N1201       N  0.44827401  0.95905376  0.78055155    -0.43600
N1202       N  0.39196627  0.10723621  0.76739843    -0.43600
C1203       C  0.79609272  0.03127379  0.38434462    -0.00100
C1204       C  0.77080547  0.02732782  0.39477407    -0.11900
C1205       C  0.76679032  0.02385977  0.42222278     0.02200
C1206       C  0.78842046  0.02462149  0.44017941    -0.00100
C1207       C  0.81381261  0.02803590  0.42948801    -0.11900
C1208       C  0.81776284  0.03131269  0.40202111     0.02100
H1209       H  0.75396929  0.02690057  0.38135324     0.15100
H1210       H  0.83081535  0.02873032  0.44265783     0.15100
C1211       C  0.84408829  0.03619856  0.39271202     0.36700
C1212       C  0.74021650  0.01959164  0.43110061     0.36600
N1213       N  0.86517775  0.04020479  0.38526386    -0.43600
N1214       N  0.71887525  0.01610740  0.43808475    -0.43600
C1215       C  0.78196819  0.02296962  0.60553631    -0.00100
C1216       C  0.80657209  0.02614408  0.61837862    -0.11900
C1217       C  0.80902768  0.02636822  0.64620277     0.02200
C1218       C  0.78657046  0.02332555  0.66213126    -0.00100
C1219       C  0.76187309  0.02084734  0.64950107    -0.11900
C1220       C  0.75932994  0.02081167  0.62160076     0.02100
H1221       H  0.82428684  0.02807022  0.60667792     0.15100
H1222       H  0.74438803  0.01873669  0.66153271     0.15100
C1223       C  0.73326952  0.01819705  0.61029782     0.36700
C1224       C  0.83507528  0.02814060  0.65774416     0.36600
N1225       N  0.71231588  0.01616173  0.60135719    -0.43600
N1226       N  0.85599054  0.02950515  0.66692169    -0.43600
C1227       C  0.68513824  0.35903623  0.48038902    -0.00100
C1228       C  0.66077052  0.36114542  0.49329493    -0.11900
C1229       C  0.64157172  0.37990610  0.48510386     0.02200
C1230       C  0.64636598  0.39709550  0.46321230    -0.00100
C1231       C  0.67042850  0.39406522  0.44985541    -0.11900
C1232       C  0.68975925  0.37581730  0.45833220     0.02100
H1233       H  0.65670381  0.34812108  0.51001782     0.15100
H1234       H  0.67441216  0.40582770  0.43240281     0.15100
C1235       C  0.71370427  0.37416998  0.44314179     0.36700
C1236       C  0.61679174  0.37979685  0.49883344     0.36600
N1237       N  0.73287139  0.37307025  0.43090933    -0.43600
N1238       N  0.59714942  0.37919310  0.51027448    -0.43600
C1239       C  0.76376452  0.15782429  0.53483369    -0.00100
C1240       C  0.78985266  0.14864817  0.53215786    -0.11900
C1241       C  0.79553389  0.12174920  0.52774156     0.02200
C1242       C  0.77479283  0.10331801  0.52618026    -0.00100
C1243       C  0.74869629  0.11283599  0.52835485    -0.11900
C1244       C  0.74308084  0.13959339  0.53267543     0.02100
H1245       H  0.80593505  0.16258910  0.53332817     0.15100
H1246       H  0.73231882  0.09923732  0.52734433     0.15100
C1247       C  0.71593575  0.14740850  0.53626134     0.36700
C1248       C  0.82272592  0.11390463  0.52476576     0.36600
N1249       N  0.69415307  0.15352548  0.53916688    -0.43600
N1250       N  0.84455766  0.10774679  0.52230569    -0.43600
C1251       C  0.88939889  0.27908498  0.52407755    -0.00100
C1252       C  0.90359748  0.29980352  0.51243249    -0.11900
C1253       C  0.93090689  0.29804316  0.50928135     0.02200
C1254       C  0.94488235  0.27503131  0.51800180    -0.00100
C1255       C  0.93057968  0.25383807  0.52858950    -0.11900
C1256       C  0.90320194  0.25556355  0.53163778     0.02100
H1257       H  0.89340520  0.31781443  0.50619329     0.15100
H1258       H  0.94087945  0.23594886  0.53503083     0.15100
C1259       C  0.89005298  0.23243451  0.54187059     0.36700
C1260       C  0.94380511  0.32020448  0.49669105     0.36600
N1261       N  0.87982785  0.21371769  0.55012890    -0.43600
N1262       N  0.95400986  0.33802435  0.48659866    -0.43600
C1263       C  0.35439831  0.48832734  0.68182763    -0.00100
C1264       C  0.35450543  0.46120154  0.67661152    -0.11900
C1265       C  0.37223112  0.45006736  0.65855984     0.02200
C1266       C  0.39087161  0.46618505  0.64498423    -0.00100
C1267       C  0.39051593  0.49364774  0.65045959    -0.11900
C1268       C  0.37247529  0.50467343  0.66855253     0.02100
H1269       H  0.34046660  0.44859031  0.68666304     0.15100
H1270       H  0.40414494  0.50685089  0.64089938     0.15100
C1271       C  0.37279037  0.53287249  0.67321424     0.36700
C1272       C  0.37039210  0.42183267  0.65435930     0.36600
N1273       N  0.37297189  0.55548243  0.67696485    -0.43600
N1274       N  0.36852239  0.39924515  0.65106761    -0.43600
C1275       C  0.26518413  0.51552519  0.88457329    -0.00100
C1276       C  0.28732630  0.50822410  0.89975082    -0.11900
C1277       C  0.28615048  0.50614180  0.92747521     0.02200
C1278       C  0.26226215  0.51177994  0.94094742    -0.00100
C1279       C  0.23958509  0.51721906  0.92558034    -0.11900
C1280       C  0.24078998  0.51893092  0.89765081     0.02100
H1281       H  0.30602755  0.50498423  0.89000216     0.15100
H1282       H  0.22095620  0.52070330  0.93537723     0.15100
C1283       C  0.21654838  0.52340159  0.88301066     0.36700
C1284       C  0.31008052  0.49820870  0.94126144     0.36600
N1285       N  0.19701561  0.52682286  0.87139445    -0.43600
N1286       N  0.32932216  0.49188628  0.95217076    -0.43600
C1287       C  0.15102516  0.53273473  0.75128931    -0.00100
C1288       C  0.14145102  0.52938432  0.77728678    -0.11900
C1289       C  0.11470622  0.52506022  0.78201357     0.02200
C1290       C  0.09674147  0.52419787  0.76034104    -0.00100
C1291       C  0.10667844  0.52644068  0.73426566    -0.11900
C1292       C  0.13341369  0.53069339  0.72961590     0.02100
H1293       H  0.15493623  0.53026406  0.79412095     0.15100
H1294       H  0.09342659  0.52569891  0.71724084     0.15100
C1295       C  0.14186770  0.53447298  0.70247741     0.36700
C1296       C  0.10652463  0.52194839  0.80932496     0.36600
N1297       N  0.14857641  0.53752787  0.68070809    -0.43600
N1298       N  0.10009422  0.51942441  0.83125164    -0.43600
C1299       C  0.01319030  0.44243146  0.76791748    -0.00100
C1300       C  0.02298060  0.42782103  0.74645614    -0.11900
C1301       C  0.02585326  0.40016128  0.74821550     0.02200
C1302       C  0.01926493  0.38666325  0.77211983    -0.00100
C1303       C  0.00783152  0.40119366  0.79278077    -0.11900
C1304       C  0.00447948  0.42863522  0.79082210     0.02100
H1305       H  0.02907194  0.43807399  0.72850145     0.15100
H1306       H  0.00204515  0.39123736  0.81098934     0.15100
C1307       C  0.99173774  0.44196106  0.81266274     0.36700
C1308       C  0.03487477  0.38638636  0.72486102     0.36600
N1309       N  0.98145548  0.45256064  0.83014608    -0.43600
N1310       N  0.04202586  0.37557515  0.70596003    -0.43600
C1311       C  0.01857473  0.66098413  0.78327833    -0.00100
C1312       C  0.01211832  0.65093790  0.75795701    -0.11900
C1313       C  0.01206601  0.62363135  0.75300180     0.02200
C1314       C  0.01877149  0.60558308  0.77367133    -0.00100
C1315       C  0.02595329  0.61575241  0.79876146    -0.11900
C1316       C  0.02579478  0.64297354  0.80375865     0.02100
H1317       H  0.00694869  0.66445167  0.74182047     0.15100
H1318       H  0.03134355  0.60234047  0.81493705     0.15100
C1319       C  0.03185738  0.65146868  0.83051147     0.36700
C1320       C  0.00429826  0.61495578  0.72675944     0.36600
N1321       N  0.03676786  0.65801708  0.85202929    -0.43600
N1322       N  0.99803392  0.60815328  0.70568214    -0.43600
C1323       C  0.01065689  0.77352951  0.43680158    -0.00100
C1324       C  0.00374025  0.79803167  0.42483153    -0.11900
C1325       C  0.00462273  0.80195006  0.39721849     0.02200
C1326       C  0.01238324  0.78097141  0.38049879    -0.00100
C1327       C  0.01796250  0.75602311  0.39226039    -0.11900
C1328       C  0.01713511  0.75211427  0.42000993     0.02100
H1329       H  0.99829525  0.81471962  0.43718498     0.15100
H1330       H  0.02338173  0.73944973  0.37976650     0.15100
C1331       C  0.02390463  0.72619116  0.43051115     0.36700
C1332       C  0.99901867  0.82826834  0.38706419     0.36600
N1333       N  0.02929744  0.70534934  0.43880834    -0.43600
N1334       N  0.99447289  0.84945611  0.37917715    -0.43600
C1335       C  0.02385495  0.78038119  0.60151282    -0.00100
C1336       C  0.02656939  0.80628207  0.61166907    -0.11900
C1337       C  0.02608257  0.81135366  0.63909469     0.02200
C1338       C  0.02296846  0.79028154  0.65733104    -0.00100
C1339       C  0.02112678  0.76430753  0.64738522    -0.11900
C1340       C  0.02158136  0.75917430  0.61992506     0.02100
H1341       H  0.02845299  0.82297549  0.59810795     0.15100
H1342       H  0.01905650  0.74781601  0.66116632     0.15100
C1343       C  0.01899491  0.73201840  0.61147620     0.36700
C1344       C  0.02711967  0.83856525  0.64774257     0.36600
N1345       N  0.01692533  0.71020289  0.60483421    -0.43600
N1346       N  0.02786547  0.86041646  0.65456951    -0.43600
C1347       C  0.35804855  0.68576078  0.47479178    -0.00100
C1348       C  0.38224916  0.68393740  0.48858707    -0.11900
C1349       C  0.40061732  0.66370796  0.48302229     0.02200
C1350       C  0.39482229  0.64455094  0.46343351    -0.00100
C1351       C  0.37072463  0.64649606  0.44962999    -0.11900
C1352       C  0.35262188  0.66688082  0.45481760     0.02100
H1353       H  0.38689876  0.69841672  0.50373952     0.15100
H1354       H  0.36614479  0.63221244  0.43425031     0.15100
C1355       C  0.32950129  0.66885276  0.43797059     0.36700
C1356       C  0.42573451  0.66396673  0.49668159     0.36600
N1357       N  0.31111730  0.67044586  0.42425265    -0.43600
N1358       N  0.44589458  0.66419754  0.50759117    -0.43600
C1359       C  0.15416566  0.76488081  0.51142468    -0.00100
C1360       C  0.14264071  0.79012387  0.51468345    -0.11900
C1361       C  0.11524105  0.79368334  0.51496847     0.02200
C1362       C  0.09858622  0.77157685  0.51202658    -0.00100
C1363       C  0.11025848  0.74648840  0.50770007    -0.11900
C1364       C  0.13761870  0.74297591  0.50742099     0.02100
H1365       H  0.15512978  0.80723428  0.51739122     0.15100
H1366       H  0.09797855  0.72920665  0.50511197     0.15100
C1367       C  0.14798704  0.71639626  0.50466822     0.36700
C1368       C  0.10505012  0.82011444  0.51917451     0.36600
N1369       N  0.15619036  0.69504674  0.50249527    -0.43600
N1370       N  0.09698544  0.84134915  0.52253591    -0.43600
C1371       C  0.28955435  0.89243652  0.52858036    -0.00100
C1372       C  0.31106343  0.90700438  0.53769522    -0.11900
C1373       C  0.30975523  0.93471265  0.53915146     0.02200
C1374       C  0.28667979  0.94853496  0.53055426    -0.00100
C1375       C  0.26508524  0.93377191  0.52157630    -0.11900
C1376       C  0.26630768  0.90602405  0.52057710     0.02100
H1377       H  0.32871535  0.89661628  0.54444432     0.15100
H1378       H  0.24739620  0.94392893  0.51460792     0.15100
C1379       C  0.24377441  0.89206180  0.51022174     0.36700
C1380       C  0.33214876  0.94816372  0.55048608     0.36600
N1381       N  0.22570042  0.88091870  0.50190211    -0.43600
N1382       N  0.35008614  0.95883410  0.55970963    -0.43600
C1383       C  0.67809310  0.56795986  0.68824201    -0.00100
C1384       C  0.68441015  0.58963800  0.67190274    -0.11900
C1385       C  0.66771579  0.59796699  0.65104817     0.02200
C1386       C  0.64396016  0.58440002  0.64599708    -0.00100
C1387       C  0.63800746  0.56219499  0.66190576    -0.11900
C1388       C  0.65466025  0.55399219  0.68289370     0.02100
H1389       H  0.70246284  0.60037673  0.67559985     0.15100
H1390       H  0.61984552  0.55158359  0.65842793     0.15100
C1391       C  0.64748469  0.53071877  0.69797233     0.36700
C1392       C  0.67621421  0.61997635  0.63487380     0.36600
N1393       N  0.64160386  0.51203467  0.70996434    -0.43600
N1394       N  0.68373338  0.63771359  0.62243523    -0.43600
C1395       C  0.87939970  0.52386739  0.76935243    -0.00100
C1396       C  0.89293753  0.53835974  0.74991488    -0.11900
C1397       C  0.92031648  0.54058654  0.75080979     0.02200
C1398       C  0.93498948  0.52762007  0.77122283    -0.00100
C1399       C  0.92150569  0.51440264  0.79152340    -0.11900
C1400       C  0.89398890  0.51263568  0.79096299     0.02100
H1401       H  0.88220559  0.54766744  0.73354408     0.15100
H1402       H  0.93252297  0.50492416  0.80763361     0.15100
C1403       C  0.88157073  0.49994013  0.81336660     0.36700
C1404       C  0.93269974  0.55687435  0.73079450     0.36600
N1405       N  0.87190001  0.48978059  0.83151648    -0.43600
N1406       N  0.94257628  0.57005315  0.71485373    -0.43600
C1407       C  0.76690434  0.50777152  0.94331984    -0.00100
C1408       C  0.76571032  0.48240345  0.93227368    -0.11900
C1409       C  0.75862494  0.47896806  0.90552353     0.02200
C1410       C  0.75246161  0.50127298  0.88938945    -0.00100
C1411       C  0.75352932  0.52670506  0.90055918    -0.11900
C1412       C  0.76056229  0.53007217  0.92736451     0.02100
H1413       H  0.76914391  0.46517411  0.94489169     0.15100
H1414       H  0.74899482  0.54398449  0.88831866     0.15100
C1415       C  0.76042013  0.55648026  0.93832073     0.36700
C1416       C  0.75620326  0.45229127  0.89559991     0.36600
N1417       N  0.76024354  0.57763277  0.94710499    -0.43600
N1418       N  0.75411405  0.43089920  0.88772126    -0.43600
C1419       C  0.77202996  0.59575060  0.01727230    -0.00100
C1420       C  0.79676504  0.60763284  0.02117290    -0.11900
C1421       C  0.80043826  0.63483820  0.01736903     0.02200
C1422       C  0.77897272  0.65121158  0.00975524    -0.00100
C1423       C  0.75407183  0.63953196  0.00640042    -0.11900
C1424       C  0.75042808  0.61218466  0.00998136     0.02100
H1425       H  0.81369565  0.59554715  0.02682700     0.15100
H1426       H  0.73721805  0.65177261  0.00091893     0.15100
C1427       C  0.72446474  0.60170008  0.00530314     0.36700
C1428       C  0.82681687  0.64491887  0.02014627     0.36600
N1429       N  0.70361714  0.59340990  0.00147147    -0.43600
N1430       N  0.84803286  0.65280593  0.02240775    -0.43600
C1431       C  0.77458610  0.43272810  0.03291759    -0.00100
C1432       C  0.76608686  0.42148964  0.05686736    -0.11900
C1433       C  0.77151318  0.39482881  0.06311191     0.02200
C1434       C  0.78481871  0.37844169  0.04460028    -0.00100
C1435       C  0.79320000  0.38987623  0.02053363    -0.11900
C1436       C  0.78856294  0.41678192  0.01478822     0.02100
H1437       H  0.75637544  0.43396712  0.07137469     0.15100
H1438       H  0.80332492  0.37780601  0.00601749     0.15100
C1439       C  0.79841085  0.42757035  0.99012958     0.36700
C1440       C  0.76474127  0.38556288  0.08942719     0.36600
N1441       N  0.80654077  0.43605246  0.97040045    -0.43600
N1442       N  0.75937667  0.37836828  0.11062513    -0.43600
C1443       C  0.59110130  0.76337969  0.02219009    -0.00100
C1444       C  0.60684601  0.74102528  0.01681721    -0.11900
C1445       C  0.63432559  0.74302749  0.01477532     0.02200
C1446       C  0.64665832  0.76792994  0.01791863    -0.00100
C1447       C  0.63110696  0.78994095  0.02436104    -0.11900
C1448       C  0.60379378  0.78800709  0.02657959     0.02100
H1449       H  0.59768921  0.72190942  0.01391859     0.15100
H1450       H  0.64028073  0.80908267  0.02707700     0.15100
C1451       C  0.58965917  0.81193179  0.03348119     0.36700
C1452       C  0.64926729  0.71898541  0.01042258     0.36600
N1453       N  0.57849227  0.83119563  0.03899047    -0.43600
N1454       N  0.66107631  0.69958822  0.00703361    -0.43600
C1455       C  0.42885350  0.76010759  0.02578106    -0.00100
C1456       C  0.41447477  0.77455282  0.00651635    -0.11900
C1457       C  0.38759791  0.78009686  0.00978783     0.02200
C1458       C  0.37471390  0.77184376  0.03332390    -0.00100
C1459       C  0.38929473  0.75698878  0.05237447    -0.11900
C1460       C  0.41598681  0.75096941  0.04872149     0.02100
H1461       H  0.42441104  0.78172678  0.98886545     0.15100
H1462       H  0.38004954  0.75052854  0.07064104     0.15100
C1463       C  0.43016697  0.73687106  0.06958162     0.36700
C1464       C  0.37394620  0.79350284  0.98818552     0.36600
N1465       N  0.44158226  0.72563223  0.08629209    -0.43600
N1466       N  0.36331027  0.80415861  0.97059094    -0.43600
C1467       C  0.69053897  0.48263869  0.36820401    -0.00100
C1468       C  0.66421093  0.49107734  0.36461235    -0.11900
C1469       C  0.64434107  0.48311189  0.38217225     0.02200
C1470       C  0.65042638  0.46591105  0.40367829    -0.00100
C1471       C  0.67681823  0.45886723  0.40830261    -0.11900
C1472       C  0.69675517  0.46666502  0.39078433     0.02100
H1473       H  0.65898905  0.50380463  0.34785664     0.15100
H1474       H  0.68199797  0.44738119  0.42583403     0.15100
C1475       C  0.72302786  0.45673303  0.39602160     0.36700
C1476       C  0.61762417  0.49180658  0.37697184     0.36600
N1477       N  0.74398004  0.44857129  0.40048507    -0.43600
N1478       N  0.59617590  0.49868703  0.37286068    -0.43600
C1479       C  0.76367679  0.52836582  0.16245295    -0.00100
C1480       C  0.74144438  0.52163802  0.14746333    -0.11900
C1481       C  0.74284073  0.51786405  0.11999623     0.02200
C1482       C  0.76721797  0.52073404  0.10659455    -0.00100
C1483       C  0.78970019  0.52684812  0.12178118    -0.11900
C1484       C  0.78817336  0.53065407  0.14942387     0.02100
H1485       H  0.72259129  0.51974165  0.15723866     0.15100
H1486       H  0.80854791  0.52886716  0.11205252     0.15100
C1487       C  0.81225893  0.53585108  0.16385983     0.36700
C1488       C  0.71861267  0.51101582  0.10651103     0.36600
N1489       N  0.83167802  0.53996715  0.17526774    -0.43600
N1490       N  0.69908817  0.50563336  0.09588784    -0.43600
C1491       C  0.88638302  0.52708891  0.27118393    -0.00100
C1492       C  0.90063794  0.54888764  0.26144577    -0.11900
C1493       C  0.92671254  0.54601989  0.25304955     0.02200
C1494       C  0.93908340  0.52097296  0.25428387    -0.00100
C1495       C  0.92459348  0.49893183  0.26259143    -0.11900
C1496       C  0.89836775  0.50165682  0.27065877     0.02100
H1497       H  0.89177566  0.56852126  0.26135834     0.15100
H1498       H  0.93418381  0.47964371  0.26380204     0.15100
C1499       C  0.88437378  0.47792329  0.27781350     0.36700
C1500       C  0.94092965  0.56937277  0.24501323     0.36600
N1501       N  0.87331517  0.45872876  0.28337757    -0.43600
N1502       N  0.95218099  0.58817994  0.23860131    -0.43600
C1503       C  0.47265724  0.68651652  0.36981074    -0.00100
C1504       C  0.48440962  0.66126572  0.36757391    -0.11900
C1505       C  0.47826612  0.64057045  0.38529294     0.02200
C1506       C  0.45965538  0.64481575  0.40553373    -0.00100
C1507       C  0.44839125  0.67021341  0.40815080    -0.11900
C1508       C  0.45471776  0.69096252  0.39065869     0.02100
H1509       H  0.49820304  0.65755683  0.35164315     0.15100
H1510       H  0.43398992  0.67370236  0.42358605     0.15100
C1511       C  0.44109157  0.71600110  0.39351466     0.36700
C1512       C  0.48980124  0.61475489  0.38090511     0.36600
N1513       N  0.43001295  0.73598321  0.39586638    -0.43600
N1514       N  0.49908371  0.59413359  0.37701112    -0.43600
C1515       C  0.51063866  0.75722138  0.10507572    -0.00100
C1516       C  0.51506772  0.73239455  0.11758951    -0.11900
C1517       C  0.51631578  0.72986296  0.14534681     0.02200
C1518       C  0.51339608  0.75245386  0.16130458    -0.00100
C1519       C  0.50863582  0.77718857  0.14910783    -0.11900
C1520       C  0.50684810  0.77973991  0.12132198     0.02100
H1521       H  0.51796855  0.71476454  0.10570500     0.15100
H1522       H  0.50611334  0.79460713  0.16141170     0.15100
C1523       C  0.50061994  0.80559980  0.11033801     0.36700
C1524       C  0.52196148  0.70410937  0.15692760     0.36600
N1525       N  0.49544400  0.82632857  0.10162560    -0.43600
N1526       N  0.52654701  0.68350761  0.16625154    -0.43600
C1527       C  0.53114534  0.88796607  0.29027095    -0.00100
C1528       C  0.50790022  0.90188307  0.29631769    -0.11900
C1529       C  0.50521367  0.92897755  0.29038994     0.02200
C1530       C  0.52581702  0.94258745  0.27774450    -0.00100
C1531       C  0.54904181  0.92892040  0.27171688    -0.11900
C1532       C  0.55206280  0.90197618  0.27819515     0.02100
H1533       H  0.49159254  0.89156356  0.30535448     0.15100
H1534       H  0.56530397  0.93962367  0.26298651     0.15100
C1535       C  0.57741412  0.88978796  0.27356335     0.36700
C1536       C  0.48100464  0.94243243  0.29720145     0.36600
N1537       N  0.59781128  0.88018106  0.26986286    -0.43600
N1538       N  0.46163477  0.95326924  0.30262609    -0.43600
C1539       C  0.57246832  0.64018219  0.64504461    -0.00100
C1540       C  0.55227886  0.65740970  0.63611651    -0.11900
C1541       C  0.54130686  0.67647122  0.65316551     0.02200
C1542       C  0.55014704  0.67811677  0.67987073    -0.00100
C1543       C  0.56930567  0.66001736  0.68905016    -0.11900
C1544       C  0.58056957  0.64134432  0.67201873     0.02100
H1545       H  0.54574993  0.65662825  0.61550620     0.15100
H1546       H  0.57601735  0.66084812  0.70960530     0.15100
C1547       C  0.59986636  0.62333482  0.68335095     0.36700
C1548       C  0.52070983  0.69369803  0.64292625     0.36600
N1549       N  0.61507891  0.60935458  0.69360590    -0.43600
N1550       N  0.50415041  0.70745555  0.63469275    -0.43600
C1551       C  0.51527140  0.88474546  0.75706179    -0.00100
C1552       C  0.51399735  0.89502266  0.78305372    -0.11900
C1553       C  0.51660825  0.92224131  0.78789633     0.02200
C1554       C  0.52080808  0.93988401  0.76639878    -0.00100
C1555       C  0.52257032  0.92932330  0.74048026    -0.11900
C1556       C  0.51971161  0.90225944  0.73566564     0.02100
H1557       H  0.51078133  0.88173779  0.79976417     0.15100
H1558       H  0.52565863  0.94230920  0.72350691     0.15100
C1559       C  0.51980577  0.89342708  0.70836041     0.36700
C1560       C  0.51438159  0.93128811  0.81500172     0.36600
N1561       N  0.51979316  0.88650590  0.68642813    -0.43600
N1562       N  0.51251639  0.93843052  0.83676726    -0.43600
C1563       C  0.50517298  0.75064769  0.88436795    -0.00100
C1564       C  0.51254701  0.77481978  0.89583434    -0.11900
C1565       C  0.51448851  0.77758864  0.92354454     0.02200
C1566       C  0.50833645  0.75595091  0.94041122    -0.00100
C1567       C  0.50128338  0.73167235  0.92869684    -0.11900
C1568       C  0.49977184  0.72886731  0.90102142     0.02100
H1569       H  0.51702391  0.79158008  0.88303662     0.15100
H1570       H  0.49642585  0.71480595  0.94117842     0.15100
C1571       C  0.49125972  0.70386716  0.89023938     0.36700
C1572       C  0.52356431  0.80257752  0.93387509     0.36600
N1573       N  0.48437388  0.68388948  0.88151890    -0.43600
N1574       N  0.53099347  0.82256946  0.94210109    -0.43600
C1575       C  0.67632813  0.68727993  0.56629914    -0.00100
C1576       C  0.65591491  0.69427399  0.58361869    -0.11900
C1577       C  0.63689991  0.67578864  0.59147765     0.02200
C1578       C  0.63762940  0.64956487  0.58159112    -0.00100
C1579       C  0.65731359  0.64291433  0.56325834    -0.11900
C1580       C  0.67660831  0.66129588  0.55574646     0.02100
H1581       H  0.65520734  0.71414361  0.59171440     0.15100
H1582       H  0.65821044  0.62293226  0.55546293     0.15100
C1583       C  0.69613870  0.65295972  0.53680257     0.36700
C1584       C  0.61682335  0.68466196  0.60954193     0.36600
N1585       N  0.71177764  0.64616225  0.52162986    -0.43600
N1586       N  0.60110930  0.69254310  0.62408338    -0.43600
C1587       C  0.88122789  0.76048777  0.52471621    -0.00100
C1588       C  0.89138238  0.78624210  0.52216564    -0.11900
C1589       C  0.91859003  0.79084270  0.52284837     0.02200
C1590       C  0.93637840  0.76924032  0.52567560    -0.00100
C1591       C  0.92595298  0.74361253  0.52922439    -0.11900
C1592       C  0.89883394  0.73911444  0.52879431     0.02100
H1593       H  0.87796687  0.80291430  0.51948736     0.15100
H1594       H  0.93903464  0.72666027  0.53173508     0.15100
C1595       C  0.88979981  0.71212012  0.53092675     0.36700
C1596       C  0.92741884  0.81786026  0.52030410     0.36600
N1597       N  0.88263077  0.69046031  0.53260279    -0.43600
N1598       N  0.93437172  0.83957734  0.51839272    -0.43600
C1599       C  0.76606928  0.88730126  0.51687079    -0.00100
C1600       C  0.77012807  0.89866176  0.54205697    -0.11900
C1601       C  0.77833469  0.92507816  0.54442453     0.02200
C1602       C  0.78267429  0.94048390  0.52135720    -0.00100
C1603       C  0.77912002  0.92906062  0.49627922    -0.11900
C1604       C  0.77090272  0.90277962  0.49381584     0.02100
H1605       H  0.76685200  0.88693237  0.55989017     0.15100
H1606       H  0.78138677  0.94120455  0.47851902     0.15100
C1607       C  0.76580395  0.89290565  0.46734858     0.36700
C1608       C  0.78138689  0.93631520  0.57063916     0.36600
N1609       N  0.76167560  0.88511466  0.44610189    -0.43600
N1610       N  0.78391121  0.94537874  0.59161399    -0.43600
C1611       C  0.07830229  0.89979341  0.90573977    -0.00100
C1612       C  0.08702896  0.87353727  0.90895286    -0.11900
C1613       C  0.07986948  0.85394745  0.89054127     0.02200
C1614       C  0.06260777  0.86034351  0.86900899    -0.00100
C1615       C  0.05137550  0.88590732  0.86793876    -0.11900
C1616       C  0.05896140  0.90547582  0.88611155     0.02100
H1617       H  0.10160437  0.86892116  0.92419593     0.15100
H1618       H  0.03742111  0.89097071  0.85220108     0.15100
C1619       C  0.04802086  0.93188222  0.88327705     0.36700
C1620       C  0.09301906  0.82852366  0.89262995     0.36600
N1621       N  0.03932468  0.95308899  0.88119777    -0.43600
N1622       N  0.10380868  0.80826623  0.89433906    -0.43600
C1623       C  0.14585981  0.89834893  0.96035216    -0.00100
C1624       C  0.14954082  0.89942607  0.98807955    -0.11900
C1625       C  0.16473213  0.87994541  0.00155911     0.02200
C1626       C  0.17580518  0.85858671  0.98732795    -0.00100
C1627       C  0.17111829  0.85690650  0.95987322    -0.11900
C1628       C  0.15678558  0.87670337  0.94627075     0.02100
H1629       H  0.14150450  0.91605282  0.99901024     0.15100
H1630       H  0.17967134  0.84061349  0.94881255     0.15100
C1631       C  0.15434650  0.87472055  0.91765852     0.36700
C1632       C  0.16891527  0.88231126  0.02991069     0.36600
N1633       N  0.15246044  0.87311542  0.89473349    -0.43600
N1634       N  0.17230643  0.88415519  0.05264888    -0.43600
C1635       C  0.14924030  0.96776391  0.88928816    -0.00100
C1636       C  0.14890474  0.96152318  0.86183188    -0.11900
C1637       C  0.16769336  0.97134206  0.84417099     0.02200
C1638       C  0.18761478  0.98841946  0.85329161    -0.00100
C1639       C  0.18808443  0.99515165  0.88038874    -0.11900
C1640       C  0.16932525  0.98512755  0.89824331     0.02100
H1641       H  0.13504121  0.94793881  0.85348751     0.15100
H1642       H  0.20330768  0.00820813  0.88773820     0.15100
C1643       C  0.17190396  0.99224786  0.92594854     0.36700
C1644       C  0.16701867  0.96168341  0.81712502     0.36600
N1645       N  0.17407129  0.99787873  0.94816426    -0.43600
N1646       N  0.16636660  0.95374078  0.79555553    -0.43600
C1647       C  0.08161746  0.97242322  0.96659810    -0.00100
C1648       C  0.06361794  0.95756440  0.98171739    -0.11900
C1649       C  0.04555547  0.96925725  0.99959202     0.02200
C1650       C  0.04215076  0.99753319  0.00069705    -0.00100
C1651       C  0.06092982  0.01218470  0.98610721    -0.11900
C1652       C  0.08097406  0.00034726  0.97089019     0.02100
H1653       H  0.06387374  0.93622378  0.98054851     0.15100
H1654       H  0.06036731  0.03363947  0.98710694     0.15100
C1655       C  0.10143837  0.01795234  0.96219275     0.36700
C1656       C  0.03333270  0.95075892  0.01755636     0.36600
N1657       N  0.11768889  0.03253708  0.95573451    -0.43600
N1658       N  0.02446706  0.93507089  0.03175652    -0.43600
C1659       C  0.88790686  0.89480732  0.06692714    -0.00100
C1660       C  0.86322117  0.90385818  0.05790539    -0.11900
C1661       C  0.84363936  0.88601144  0.04967955     0.02200
C1662       C  0.84852494  0.85820621  0.05063368    -0.00100
C1663       C  0.87404260  0.84957626  0.05817633    -0.11900
C1664       C  0.89367571  0.86751824  0.06563681     0.02100
H1665       H  0.85907021  0.92499751  0.05773531     0.15100
H1666       H  0.87894378  0.82865406  0.05839343     0.15100
C1667       C  0.92003159  0.85754572  0.07034036     0.36700
C1668       C  0.81928519  0.89722002  0.03960927     0.36600
N1669       N  0.94120737  0.84946093  0.07363403    -0.43600
N1670       N  0.79995590  0.90666590  0.03147666    -0.43600
C1671       C  0.89094186  0.95918070  0.13358898    -0.00100
C1672       C  0.89975391  0.98066956  0.14901633    -0.11900
C1673       C  0.88434633  0.99145111  0.16959016     0.02200
C1674       C  0.85927811  0.98091415  0.17522026    -0.00100
C1675       C  0.85030862  0.95979831  0.15962747    -0.11900
C1676       C  0.86568856  0.94884488  0.13926155     0.02100
H1677       H  0.91898549  0.98895966  0.14524070     0.15100
H1678       H  0.83111086  0.95148313  0.16358837     0.15100
C1679       C  0.85427203  0.92732331  0.12454359     0.36700
C1680       C  0.89435648  0.01403149  0.18381224     0.36600
N1681       N  0.84428585  0.90986433  0.11372363    -0.43600
N1682       N  0.90243502  0.03220929  0.19508493    -0.43600
C1683       C  0.97066653  0.85578605  0.17097859    -0.00100
C1684       C  0.98316844  0.88040360  0.16827901    -0.11900
C1685       C  0.97481273  0.89909952  0.14891008     0.02200
C1686       C  0.95314061  0.89351501  0.13192487    -0.00100
C1687       C  0.94029660  0.86916119  0.13532169    -0.11900
C1688       C  0.94904565  0.85027038  0.15411563     0.02100
H1689       H  0.99958530  0.88503948  0.18134173     0.15100
H1690       H  0.92314552  0.86472607  0.12331018     0.15100
C1691       C  0.93461458  0.82584657  0.15644239     0.36700
C1692       C  0.98795482  0.92434500  0.14801477     0.36600
N1693       N  0.92301983  0.80627971  0.15824111    -0.43600
N1694       N  0.99851343  0.94457503  0.14729890    -0.43600
C1695       C  0.96118364  0.96522151  0.06010657    -0.00100
C1696       C  0.97503371  0.98513726  0.07373150    -0.11900
C1697       C  0.99368654  0.00156999  0.06128479     0.02200
C1698       C  0.00080111  0.99766673  0.03399146    -0.00100
C1699       C  0.98505137  0.97944870  0.01990229    -0.11900
C1700       C  0.96732215  0.96215566  0.03261597     0.02100
H1701       H  0.97103449  0.98819876  0.09467661     0.15100
H1702       H  0.98846821  0.97698537  0.99876349     0.15100
C1703       C  0.95916574  0.93968417  0.01712125     0.36700
C1704       C  0.00244317  0.02370206  0.07703688     0.36600
N1705       N  0.95340530  0.92162049  0.00428925    -0.43600
N1706       N  0.00884865  0.04145149  0.08999978    -0.43600
C1707       C  0.86493671  0.05634217  0.87017134    -0.00100
C1708       C  0.85858520  0.06144419  0.89698533    -0.11900
C1709       C  0.87713816  0.07205778  0.91506599     0.02200
C1710       C  0.90251733  0.07921567  0.90616489    -0.00100
C1711       C  0.90960888  0.07116471  0.88036392    -0.11900
C1712       C  0.89153918  0.05971937  0.86267727     0.02100
H1713       H  0.83884846  0.05764722  0.90391948     0.15100
H1714       H  0.92960528  0.07414712  0.87366718     0.15100
C1715       C  0.90156556  0.05111069  0.83733781     0.36700
C1716       C  0.86931604  0.07475585  0.94242604     0.36600
N1717       N  0.91007500  0.04427760  0.81718188    -0.43600
N1718       N  0.86265706  0.07616975  0.96436680    -0.43600
C1719       C  0.90181140  0.13911946  0.97561947    -0.00100
C1720       C  0.87620849  0.13837391  0.96501844    -0.11900
C1721       C  0.85608030  0.15506425  0.97440989     0.02200
C1722       C  0.86139013  0.17359384  0.99482600    -0.00100
C1723       C  0.88694081  0.17400765  0.00583363    -0.11900
C1724       C  0.90703180  0.15731340  0.99632478     0.02100
H1725       H  0.87247122  0.12658199  0.94751211     0.15100
H1726       H  0.89154114  0.18810856  0.02135990     0.15100
C1727       C  0.93337059  0.16081297  0.00667351     0.36700
C1728       C  0.83103024  0.15442949  0.96066588     0.36600
N1729       N  0.95450091  0.16385685  0.01481766    -0.43600
N1730       N  0.81104800  0.15379424  0.94944839    -0.43600
C1731       C  0.97010086  0.15112275  0.90542154    -0.00100
C1732       C  0.95900887  0.17673213  0.90157149    -0.11900
C1733       C  0.96840424  0.19462480  0.88258133     0.02200
C1734       C  0.98895063  0.18711834  0.86541678    -0.00100
C1735       C  0.99976292  0.16149157  0.86830237    -0.11900
C1736       C  0.99051649  0.14354671  0.88773241     0.02100
H1737       H  0.94154011  0.18279965  0.91202830     0.15100
H1738       H  0.01525166  0.15524230  0.85495794     0.15100
C1739       C  0.00154765  0.11709528  0.88785513     0.36700
C1740       C  0.95480374  0.21981943  0.87996167     0.36600
N1741       N  0.01054480  0.09593114  0.88782625    -0.43600
N1742       N  0.94376814  0.23993720  0.87814608    -0.43600
C1743       C  0.00312474  0.03272321  0.99921694    -0.00100
C1744       C  0.98631648  0.05125344  0.01202792    -0.11900
C1745       C  0.97061321  0.06985479  0.99791466     0.02200
C1746       C  0.97089080  0.07069011  0.96989997    -0.00100
C1747       C  0.98551362  0.05109410  0.95673573    -0.11900
C1748       C  0.00041429  0.03162380  0.97078270     0.02100
H1749       H  0.98624327  0.05200622  0.03355096     0.15100
H1750       H  0.98480022  0.05065890  0.93513053     0.15100
C1751       C  0.01014363  0.00988188  0.95504317     0.36700
C1752       C  0.95504159  0.08838604  0.01292626     0.36600
N1753       N  0.01744218  0.99252132  0.94199451    -0.43600
N1754       N  0.94252217  0.10282346  0.02547029    -0.43600
C1755       C  0.18596012  0.17247583  0.06187243    -0.00100
C1756       C  0.18629608  0.14670079  0.05130730    -0.11900
C1757       C  0.16708699  0.12801065  0.05836339     0.02200
C1758       C  0.14702682  0.13496777  0.07644679    -0.00100
C1759       C  0.14706341  0.16055427  0.08718779    -0.11900
C1760       C  0.16602721  0.17919107  0.08017500     0.02100
H1761       H  0.20158735  0.14112470  0.03745212     0.15100
H1762       H  0.13238734  0.16604925  0.10159770     0.15100
C1763       C  0.16513254  0.20454208  0.09335253     0.36700
C1764       C  0.16931924  0.10153346  0.04787209     0.36600
N1765       N  0.16421268  0.22478940  0.10402506    -0.43600
N1766       N  0.17118669  0.08030359  0.03945946    -0.43600
C1767       C  0.18254814  0.06265198  0.18420369    -0.00100
C1768       C  0.18372914  0.05089352  0.15891500    -0.11900
C1769       C  0.16510884  0.05711567  0.13892725     0.02200
C1770       C  0.14465925  0.07549816  0.14399975    -0.00100
C1771       C  0.14360202  0.08748090  0.16912951    -0.11900
C1772       C  0.16219057  0.08126433  0.18914046     0.02100
H1773       H  0.19930808  0.03675167  0.15469163     0.15100
H1774       H  0.12827216  0.10199553  0.17308354     0.15100
C1775       C  0.16066320  0.09544765  0.21395646     0.36700
C1776       C  0.16826636  0.04537775  0.11299508     0.36600
N1777       N  0.15937666  0.10697638  0.23375911    -0.43600
N1778       N  0.17080684  0.03600652  0.09219148    -0.43600
C1779       C  0.07908799  0.13757393  0.13656126    -0.00100
C1780       C  0.08147033  0.16456770  0.13053876    -0.11900
C1781       C  0.07372904  0.18413580  0.14868257     0.02200
C1782       C  0.06220750  0.17682224  0.17334601    -0.00100
C1783       C  0.05920936  0.14954559  0.17886372    -0.11900
C1784       C  0.06773428  0.13007620  0.16091536     0.02100
H1785       H  0.08981115  0.17044276  0.11165932     0.15100
H1786       H  0.05038390  0.14324250  0.19739183     0.15100
C1787       C  0.06549323  0.10246921  0.16825547     0.36700
C1788       C  0.07961430  0.21125109  0.14176666     0.36600
N1789       N  0.06386607  0.08029360  0.17403064    -0.43600
N1790       N  0.08467349  0.23282980  0.13585569    -0.43600
C1791       C  0.04012044  0.03177246  0.03600078    -0.00100
C1792       C  0.04285893  0.05949808  0.03185973    -0.11900
C1793       C  0.05941998  0.07526229  0.04771946     0.02200
C1794       C  0.07555143  0.06381549  0.06803216    -0.00100
C1795       C  0.07419903  0.03604425  0.07121489    -0.11900
C1796       C  0.05723158  0.02027114  0.05571864     0.02100
H1797       H  0.03261130  0.06944264  0.01566214     0.15100
H1798       H  0.08588556  0.02598958  0.08622929     0.15100
C1799       C  0.05720725  0.99231579  0.06199121     0.36700
C1800       C  0.05933396  0.10347026  0.04243252     0.36600
N1801       N  0.05778861  0.97020997  0.06830722    -0.43600
N1802       N  0.05921202  0.12605233  0.03815335    -0.43600
loop_ 
_geom_bond_atom_site_label_1 
_geom_bond_atom_site_label_2 
_geom_bond_distance 
_geom_bond_site_symmetry_2 
_ccdc_geom_bond_type 
C1            C2   1.557       .  S
C1            C7   1.550       .  S
C1            C5   1.545       .  S
C1         C1794   1.559       .  S
C2            H9   1.080       .  S
C2            C3   1.370       .  D
C3            C4   1.532       .  S
C3         C1770   1.493       .  S
C4            C8   1.536       .  S
C4            C6   1.532       .  S
C4           H10   1.111       .  S
C5           H11   1.086       .  S
C5            C6   1.365       .  D
C6         C1779   1.488       .  S
C7           H12   1.085       .  S
C7            C8   1.372       .  D
C8         C1758   1.497       .  S
C13          C14   1.543       .  S
C13          C19   1.536       .  S
C13          C17   1.531       .  S
C13        C1731   1.553       .  S
C14          H21   1.085       .  S
C14          C15   1.374       .  D
C15          C16   1.563       .  S
C15        C1746   1.508       .  S
C16          C20   1.559       .  S
C16          C18   1.557       .  S
C16          H22   1.107       .  S
C17          H23   1.086       .  S
C17          C18   1.370       .  D
C18        C1710   1.518       .  S
C19          H24   1.083       .  S
C19          C20   1.357       .  D
C20        C1719   1.498       .  S
C25          C26   1.555       .  S
C25          C31   1.550       .  S
C25          C29   1.545       .  S
C25        C1695   1.567       .  S
C26          H33   1.085       .  S
C26          C27   1.378       .  D
C27          C28   1.544       .  S
C27        C1671   1.513       .  S
C28          C32   1.540       .  S
C28          C30   1.539       .  S
C28          H34   1.107       .  S
C29          H35   1.085       .  S
C29          C30   1.371       .  D
C30        C1686   1.505       .  S
C31          H36   1.078       .  S
C31          C32   1.363       .  D
C32        C1659   1.491       .  S
C37          C38   1.530       .  S
C37          C43   1.539       .  S
C37          C41   1.538       .  S
C37        C1635   1.553       .  S
C38          H45   1.087       .  S
C38          C39   1.358       .  D
C39          C40   1.546       .  S
C39        C1623   1.492       .  S
C40          C44   1.577       .  S
C40          C42   1.545       .  S
C40          H46   1.105       .  S
C41          H47   1.078       .  S
C41          C42   1.360       .  D
C42        C1611   1.489       .  S
C43          H48   1.076       .  S
C43          C44   1.387       .  D
C44        C1647   1.544       .  S
C49        C1650   1.598   1_545  S
C49        C1698   1.587   1_545  S
C49        C1743   1.592   1_554  S
C49        C1791   1.589       .  S
N50          N51   1.321       .  A
N50          C54   1.352       .  A
N50         Cu58   2.103       .  S
N51          C52   1.339       .  A
N51         Cu57   2.044       .  S
C52          C53   1.378       .  A
C52          H55   1.082       .  S
C53          C54   1.394       .  A
C53        C1599   1.486       .  S
C54          H56   1.082       .  S
Cu57         N60   2.047       .  S
Cu58         N68   2.106       .  S
Cu59         N61   2.086       .  S
Cu59         N67   2.089       .  S
N60          N61   1.320       .  A
N60          C64   1.341       .  A
N61          C62   1.349       .  A
C62          C63   1.391       .  A
C62          H65   1.082       .  S
C63          C64   1.380       .  A
C63        C1587   1.484       .  S
C64          H66   1.082       .  S
N67          N68   1.324       .  A
N67          C71   1.347       .  A
N68          C69   1.351       .  A
C69          C70   1.392       .  A
C69          H72   1.082       .  S
C70          C71   1.388       .  A
C70        C1575   1.498       .  S
C71          H73   1.081       .  S
N74          N75   1.320       .  A
N74          C78   1.348       .  A
N74         Cu82   2.082       .  S
N75          C76   1.340       .  A
N75         Cu81   2.041       .  S
C76          C77   1.377       .  A
C76          H79   1.082       .  S
C77          C78   1.389       .  A
C77        C1563   1.477       .  S
C78          H80   1.082       .  S
Cu81         N84   2.038       .  S
Cu82         N92   2.085       .  S
Cu83         N85   2.091       .  S
Cu83         N91   2.093       .  S
N84          N85   1.320       .  A
N84          C88   1.338       .  A
N85          C86   1.349       .  A
C86          C87   1.393       .  A
C86          H89   1.081       .  S
C87          C88   1.378       .  A
C87        C1551   1.484       .  S
C88          H90   1.082       .  S
N91          N92   1.325       .  A
N91          C95   1.349       .  A
N92          C93   1.345       .  A
C93          C94   1.384       .  A
C93          H96   1.082       .  S
C94          C95   1.387       .  A
C94        C1542   1.486       .  S
C95          H97   1.082       .  S
N98          N99   1.319       .  A
N98         C102   1.348       .  A
N98        Cu106   2.082       .  S
N99         C100   1.340       .  A
N99        Cu105   2.043       .  S
C100        C101   1.377       .  A
C100        H103   1.082       .  S
C101        C102   1.388       .  A
C101       C1518   1.476       .  S
C102        H104   1.082       .  S
Cu105       N108   2.041       .  S
Cu106       N116   2.084       .  S
Cu107       N109   2.101       .  S
Cu107       N115   2.103       .  S
N108        N109   1.320       .  A
N108        C112   1.338       .  A
N109        C110   1.351       .  A
C110        C111   1.396       .  A
C110        H113   1.082       .  S
C111        C112   1.380       .  A
C111       C1527   1.490       .  S
C112        H114   1.081       .  S
N115        N116   1.325       .  A
N115        C119   1.350       .  A
N116        C117   1.345       .  A
C117        C118   1.384       .  A
C117        H120   1.082       .  S
C118        C119   1.389       .  A
C118       C1503   1.490       .  S
C119        H121   1.082       .  S
N122        N123   1.320       .  A
N122        C126   1.346       .  A
N122       Cu130   2.084       .  S
N123        C124   1.343       .  A
N123       Cu129   2.047       .  S
C124        C125   1.381       .  A
C124        H127   1.081       .  S
C125        C126   1.390       .  A
C125       C1479   1.484       .  S
C126        H128   1.082       .  S
Cu129       N132   2.045       .  S
Cu130       N140   2.085       .  S
Cu131       N133   2.098       .  S
Cu131       N139   2.098       .  S
N132        N133   1.321       .  A
N132        C136   1.340       .  A
N133        C134   1.350       .  A
C134        C135   1.395       .  A
C134        H137   1.081       .  S
C135        C136   1.380       .  A
C135       C1491   1.491       .  S
C136        H138   1.082       .  S
N139        N140   1.322       .  A
N139        C143   1.349       .  A
N140        C141   1.346       .  A
C141        C142   1.389       .  A
C141        H144   1.082       .  S
C142        C143   1.393       .  A
C142       C1467   1.500       .  S
C143        H145   1.080       .  S
O146       Cu154   2.032       .  S
O146        C156   1.282       .  A
O147       Cu154   2.024   1_556  S
O147        C157   1.281       .  A
O148       Cu154   1.979       .  S
O148        C158   1.272       .  A
O149       Cu154   1.977       .  S
O149        C159   1.272       .  A
O150       Cu155   2.045       .  S
O150        C159   1.284       .  A
O151       Cu155   2.042       .  S
O151        C158   1.283       .  A
O152       Cu155   1.989   1_556  S
O152        C157   1.275       .  A
O153       Cu155   1.981       .  S
O153        C156   1.274       .  A
Cu154      Cu155   2.366       .  S
C156       C1515   1.492       .  S
C157       C1566   1.489       .  S
C158       C1455   1.475       .  S
C159       C1443   1.495       .  S
O160       Cu168   1.964       .  S
O160        C170   1.270       .  A
O161       Cu168   1.971   1_556  S
O161        C171   1.270       .  A
O162       Cu168   2.044       .  S
O162        C172   1.283       .  A
O163       Cu168   2.039       .  S
O163        C173   1.282       .  A
O164       Cu169   1.978       .  S
O164        C173   1.274       .  A
O165       Cu169   1.982       .  S
O165        C172   1.272       .  A
O166       Cu169   2.039   1_556  S
O166        C171   1.282       .  A
O167       Cu169   2.048       .  S
O167        C170   1.284       .  A
Cu168      Cu169   2.369       .  S
C170       C1482   1.493       .  S
C171       C1407   1.467       .  S
C172       C1431   1.477       .  S
C173       C1419   1.493       .  S
N174        N175   1.319   1_554  A
N174        C178   1.347       .  A
N174       Cu182   2.083       .  S
N175        C176   1.341       .  A
N175       Cu181   2.047       .  S
C176        C177   1.383   1_556  A
C176        H179   1.082       .  S
C177        C178   1.393       .  A
C177       C1422   1.490       .  S
C178        H180   1.081       .  S
Cu181       N184   2.050       .  S
Cu182       N192   2.085       .  S
Cu183       N185   2.101       .  S
Cu183       N191   2.101       .  S
N184        N185   1.322   1_556  A
N184        C188   1.342       .  A
N185        C186   1.349       .  A
C186        C187   1.393       .  A
C186        H189   1.082       .  S
C187        C188   1.381   1_554  A
C187       C1446   1.488       .  S
C188        H190   1.081       .  S
N191        N192   1.321       .  A
N191        C195   1.350       .  A
N192        C193   1.345       .  A
C193        C194   1.393       .  A
C193        H196   1.081       .  S
C194        C195   1.398       .  A
C194       C1662   1.509       .  S
C195        H197   1.079       .  S
N198        N199   1.321       .  A
N198        C202   1.347       .  A
N198       Cu206   2.079       .  S
N199        C200   1.341       .  A
N199       Cu205   2.054       .  S
C200        C201   1.380       .  A
C200        H203   1.082       .  S
C201        C202   1.388       .  A
C201       C1410   1.479       .  S
C202        H204   1.082       .  S
Cu205       N208   2.055       .  S
Cu206       N216   2.080       .  S
Cu207       N209   2.077       .  S
Cu207       N215   2.078       .  S
N208        N209   1.319       .  A
N208        C212   1.341       .  A
N209        C210   1.345       .  A
C210        C211   1.391       .  A
C210        H213   1.082       .  S
C211        C212   1.385       .  A
C211       C1395   1.490       .  S
C212        H214   1.080       .  S
N215        N216   1.322       .  A
N215        C219   1.344       .  A
N216        C217   1.347       .  A
C217        C218   1.388       .  A
C217        H220   1.081       .  S
C218        C219   1.386       .  A
C218       C1383   1.488       .  S
C219        H221   1.082       .  S
N222        N223   1.321       .  A
N222        C226   1.351       .  A
N222       Cu230   2.098       .  S
N223        C224   1.339       .  A
N223       Cu229   2.041       .  S
C224        C225   1.375       .  A
C224        H227   1.082       .  S
C225        C226   1.391       .  A
C225       C1371   1.479       .  S
C226        H228   1.082       .  S
Cu229       N232   2.041       .  S
Cu230       N240   2.101       .  S
Cu231       N233   2.089       .  S
Cu231       N239   2.092       .  S
N232        N233   1.319       .  A
N232        C236   1.339       .  A
N233        C234   1.350       .  A
C234        C235   1.394       .  A
C234        H237   1.081       .  S
C235        C236   1.380       .  A
C235       C1359   1.487       .  S
C236        H238   1.082       .  S
N239        N240   1.325       .  A
N239        C243   1.345       .  A
N240        C241   1.350       .  A
C241        C242   1.390       .  A
C241        H244   1.082       .  S
C242        C243   1.387       .  A
C242       C1347   1.495       .  S
C243        H245   1.081       .  S
O246       Cu254   1.978       .  S
O246        C256   1.274       .  A
O247       Cu254   1.982       .  S
O247        C257   1.274       .  A
O248       Cu254   2.041       .  S
O248        C258   1.283       .  A
O249       Cu254   2.042   1_655  S
O249        C259   1.283       .  A
O250       Cu255   1.977   1_655  S
O250        C259   1.274       .  A
O251       Cu255   1.978       .  S
O251        C258   1.273       .  A
O252       Cu255   2.050       .  S
O252        C257   1.284       .  A
O253       Cu255   2.051       .  S
O253        C256   1.284       .  A
Cu254      Cu255   2.362       .  S
C256       C1323   1.496       .  S
C257       C1335   1.499       .  S
C258       C1362   1.494       .  S
C259       C1590   1.495       .  S
O260       Cu268   1.979   1_655  S
O260        C270   1.273       .  A
O261       Cu268   1.980       .  S
O261        C271   1.274       .  A
O262       Cu268   2.035       .  S
O262        C272   1.282       .  A
O263       Cu268   2.034       .  S
O263        C273   1.282       .  A
O264       Cu269   1.972       .  S
O264        C273   1.273       .  A
O265       Cu269   1.971       .  S
O265        C272   1.272       .  A
O266       Cu269   2.027       .  S
O266        C271   1.281       .  A
O267       Cu269   2.028   1_655  S
O267        C270   1.281       .  A
Cu268      Cu269   2.367       .  S
C270       C1398   1.481       .  S
C271       C1290   1.491       .  S
C272       C1299   1.483       .  S
C273       C1314   1.489       .  S
N274        N275   1.318       .  A
N274        C278   1.346       .  A
N274       Cu282   2.073       .  S
N275        C276   1.339       .  A
N275       Cu281   2.047   1_455  S
C276        C277   1.383       .  A
C276        H279   1.082   1_455  S
C277        C278   1.392       .  A
C277       C1311   1.487       .  S
C278        H280   1.081       .  S
Cu281       N284   2.048   1_655  S
Cu282       N292   2.075       .  S
Cu283       N285   2.107       .  S
Cu283       N291   2.109       .  S
N284        N285   1.321       .  A
N284        C288   1.340       .  A
N285        C286   1.353       .  A
C286        C287   1.396       .  A
C286        H289   1.082       .  S
C287        C288   1.379       .  A
C287       C1338   1.491       .  S
C288        H290   1.082   1_455  S
N291        N292   1.324       .  A
N291        C295   1.350       .  A
N292        C293   1.345       .  A
C293        C294   1.385       .  A
C293        H296   1.081       .  S
C294        C295   1.393       .  A
C294       C1614   1.495       .  S
C295        H297   1.082       .  S
N298        N299   1.320       .  A
N298        C302   1.348       .  A
N298       Cu306   2.083       .  S
N299        C300   1.339       .  A
N299       Cu305   2.044       .  S
C300        C301   1.379       .  A
C300        H303   1.082       .  S
C301        C302   1.390       .  A
C301       C1287   1.482       .  S
C302        H304   1.082       .  S
Cu305       N308   2.047       .  S
Cu306       N316   2.085       .  S
Cu307       N309   2.097       .  S
Cu307       N315   2.098       .  S
N308        N309   1.320       .  A
N308        C312   1.342       .  A
N309        C310   1.348       .  A
C310        C311   1.393       .  A
C310        H313   1.082       .  S
C311        C312   1.381       .  A
C311       C1275   1.488       .  S
C312        H314   1.081       .  S
N315        N316   1.324       .  A
N315        C319   1.349       .  A
N316        C317   1.347       .  A
C317        C318   1.383       .  A
C317        H320   1.082       .  S
C318        C319   1.386       .  A
C318       C1263   1.483       .  S
C319        H321   1.082       .  S
N322        N323   1.321       .  A
N322        C326   1.347       .  A
N322       Cu330   2.082       .  S
N323        C324   1.341       .  A
N323       Cu329   2.050       .  S
C324        C325   1.380       .  A
C324        H327   1.082       .  S
C325        C326   1.389       .  A
C325       C1239   1.483       .  S
C326        H328   1.082       .  S
Cu329       N332   2.049       .  S
Cu330       N340   2.083       .  S
Cu331       N333   2.096       .  S
Cu331       N339   2.098       .  S
N332        N333   1.320       .  A
N332        C336   1.341       .  A
N333        C334   1.349       .  A
C334        C335   1.394       .  A
C334        H337   1.082       .  S
C335        C336   1.383       .  A
C335       C1251   1.493       .  S
C336        H338   1.080       .  S
N339        N340   1.323       .  A
N339        C343   1.347       .  A
N340        C341   1.348       .  A
C341        C342   1.388       .  A
C341        H344   1.082       .  S
C342        C343   1.390       .  A
C342       C1227   1.495       .  S
C343        H345   1.081       .  S
O346       Cu354   2.044       .  S
O346        C356   1.283       .  A
O347       Cu354   2.045       .  S
O347        C357   1.284       .  A
O348       Cu354   1.970   1_565  S
O348        C358   1.270       .  A
O349       Cu354   1.963       .  S
O349        C359   1.272       .  A
O350       Cu355   2.044       .  S
O350        C359   1.283       .  A
O351       Cu355   2.046   1_565  S
O351        C358   1.282       .  A
O352       Cu355   1.993       .  S
O352        C357   1.275       .  A
O353       Cu355   1.986       .  S
O353        C356   1.275       .  A
Cu354      Cu355   2.365       .  S
C356       C1215   1.498       .  S
C357       C1206   1.501       .  S
C358       C1602   1.470       .  S
C359       C1242   1.492       .  S
O360       Cu368   1.982       .  S
O360        C370   1.273       .  A
O361       Cu368   1.976       .  S
O361        C371   1.271       .  A
O362       Cu368   2.048   1_565  S
O362        C372   1.284       .  A
O363       Cu368   2.055       .  S
O363        C373   1.285       .  A
O364       Cu369   1.956       .  S
O364        C373   1.271       .  A
O365       Cu369   1.958   1_565  S
O365        C372   1.271       .  A
O366       Cu369   2.044       .  S
O366        C371   1.282       .  A
O367       Cu369   2.044       .  S
O367        C370   1.284       .  A
Cu368      Cu369   2.367       .  S
C370       C1179   1.494       .  S
C371       C1191   1.472       .  S
C372       C1554   1.492       .  S
C373       C1170   1.488       .  S
N374        N375   1.321   1_545  A
N374        C378   1.353       .  A
N374       Cu382   2.107       .  S
N375        C376   1.339       .  A
N375       Cu381   2.041       .  S
C376        C377   1.377   1_565  A
C376        H379   1.082       .  S
C377        C378   1.394       .  A
C377       C1182   1.485       .  S
C378        H380   1.082       .  S
Cu381       N384   2.045   1_565  S
Cu382       N392   2.110       .  S
Cu383       N385   2.101       .  S
Cu383       N391   2.103       .  S
N384        N385   1.319       .  A
N384        C388   1.340       .  A
N385        C386   1.351       .  A
C386        C387   1.395       .  A
C386        H389   1.082       .  S
C387        C388   1.380       .  A
C387       C1218   1.489       .  S
C388        H390   1.082   1_545  S
N391        N392   1.324       .  A
N391        C395   1.346       .  A
N392        C393   1.353       .  A
C393        C394   1.397       .  A
C393        H396   1.081       .  S
C394        C395   1.394       .  A
C394       C1707   1.513       .  S
C395        H397   1.078       .  S
N398        N399   1.320       .  A
N398        C402   1.346       .  A
N398       Cu406   2.089       .  S
N399        C400   1.341       .  A
N399       Cu405   2.046       .  S
C400        C401   1.382       .  A
C400        H403   1.082       .  S
C401        C402   1.393       .  A
C401       C1167   1.490       .  S
C402        H404   1.080       .  S
Cu405       N408   2.049       .  S
Cu406       N416   2.090       .  S
Cu407       N409   2.104       .  S
Cu407       N415   2.104       .  S
N408        N409   1.321       .  A
N408        C412   1.343       .  A
N409        C410   1.350       .  A
C410        C411   1.394       .  A
C410        H413   1.081       .  S
C411        C412   1.380       .  A
C411       C1155   1.491       .  S
C412        H414   1.082       .  S
N415        N416   1.323       .  A
N415        C419   1.351       .  A
N416        C417   1.349       .  A
C417        C418   1.387       .  A
C417        H420   1.082       .  S
C418        C419   1.390       .  A
C418       C1146   1.493       .  S
C419        H421   1.082       .  S
O422       Cu430   2.052   1_556  S
O422        C432   1.284       .  A
O423       Cu430   2.051       .  S
O423        C433   1.284       .  A
O424       Cu430   1.977       .  S
O424        C434   1.273       .  A
O425       Cu430   1.969       .  S
O425        C435   1.273       .  A
O426       Cu431   2.035       .  S
O426        C435   1.282       .  A
O427       Cu431   2.032       .  S
O427        C434   1.282       .  A
O428       Cu431   1.967       .  S
O428        C433   1.272       .  A
O429       Cu431   1.966   1_556  S
O429        C432   1.271       .  A
Cu430      Cu431   2.363       .  S
C432       C1278   1.493       .  S
C433       C1110   1.493       .  S
C434       C1131   1.486       .  S
C435       C1119   1.489       .  S
N436        N437   1.319       .  A
N436        C440   1.348       .  A
N436       Cu444   2.088       .  S
N437        C438   1.339       .  A
N437       Cu443   2.048       .  S
C438        C439   1.384       .  A
C438        H441   1.081       .  S
C439        C440   1.394       .  A
C439       C1134   1.493       .  S
C440        H442   1.080       .  S
Cu443       N446   2.051       .  S
Cu444       N454   2.090       .  S
Cu445       N447   2.093       .  S
Cu445       N453   2.095       .  S
N446        N447   1.319       .  A
N446        C450   1.340       .  A
N447        C448   1.350       .  A
C448        C449   1.396       .  A
C448        H451   1.080       .  S
C449        C450   1.384       .  A
C449       C1458   1.496       .  S
C450        H452   1.082       .  S
N453        N454   1.325       .  A
N453        C457   1.348       .  A
N454        C455   1.348       .  A
C455        C456   1.385       .  A
C455        H458   1.082   1_554  S
C456        C457   1.385       .  A
C456       C1626   1.483   1_554  S
C457        H459   1.082       .  S
O460       Cu468   1.973       .  S
O460        C470   1.271       .  A
O461       Cu468   1.968       .  S
O461        C471   1.271       .  A
O462       Cu468   2.046       .  S
O462        C472   1.284       .  A
O463       Cu468   2.047   1_655  S
O463        C473   1.283       .  A
O464       Cu469   1.968   1_655  S
O464        C473   1.270       .  A
O465       Cu469   1.972       .  S
O465        C472   1.273       .  A
O466       Cu469   2.043       .  S
O466        C471   1.284       .  A
O467       Cu469   2.039       .  S
O467        C470   1.284       .  A
Cu468      Cu469   2.366       .  S
C470       C1083   1.490       .  S
C471       C1095   1.489       .  S
C472       C1071   1.495       .  S
C473       C1494   1.470       .  S
N474        N475   1.320       .  A
N474        C478   1.350       .  A
N474       Cu482   2.098   1_455  S
N475        C476   1.341       .  A
N475       Cu481   2.050       .  S
C476        C477   1.383       .  A
C476        H479   1.082       .  S
C477        C478   1.396       .  A
C477       C1326   1.495       .  S
C478        H480   1.081   1_455  S
Cu481       N484   2.048       .  S
Cu482       N492   2.099       .  S
Cu483       N485   2.090       .  S
Cu483       N491   2.091   1_455  S
N484        N485   1.320       .  A
N484        C488   1.341       .  A
N485        C486   1.347       .  A
C486        C487   1.392       .  A
C486        H489   1.082   1_455  S
C487        C488   1.382       .  A
C487       C1098   1.489       .  S
C488        H490   1.080       .  S
N491        N492   1.324       .  A
N491        C495   1.348       .  A
N492        C493   1.350       .  A
C493        C494   1.388       .  A
C493        H496   1.082       .  S
C494        C495   1.388       .  A
C494       C1683   1.493       .  S
C495        H497   1.082       .  S
N498        N499   1.320       .  A
N498        C502   1.349       .  A
N498       Cu506   2.088       .  S
N499        C500   1.340       .  A
N499       Cu505   2.047       .  S
C500        C501   1.381       .  A
C500        H503   1.082       .  S
C501        C502   1.393       .  A
C501       C1107   1.488       .  S
C502        H504   1.081       .  S
Cu505       N508   2.049       .  S
Cu506       N516   2.090       .  S
Cu507       N509   2.094       .  S
Cu507       N515   2.095       .  S
N508        N509   1.321       .  A
N508        C512   1.341       .  A
N509        C510   1.349       .  A
C510        C511   1.392       .  A
C510        H513   1.082       .  S
C511        C512   1.379       .  A
C511       C1074   1.485       .  S
C512        H514   1.082       .  S
N515        N516   1.324       .  A
N515        C519   1.350       .  A
N516        C517   1.345       .  A
C517        C518   1.388       .  A
C517        H520   1.082       .  S
C518        C519   1.391       .  A
C518       C1062   1.497       .  S
C519        H521   1.081       .  S
O522       Cu530   2.040       .  S
O522        C532   1.282       .  A
O523       Cu530   2.041       .  S
O523        C533   1.284       .  A
O524       Cu530   1.969   1_556  S
O524        C534   1.272       .  A
O525       Cu530   1.974       .  S
O525        C535   1.273       .  A
O526       Cu531   2.056       .  S
O526        C535   1.285       .  A
O527       Cu531   2.063   1_556  S
O527        C534   1.286       .  A
O528       Cu531   1.971       .  S
O528        C533   1.271       .  A
O529       Cu531   1.976       .  S
O529        C532   1.271       .  A
Cu530      Cu531   2.365       .  S
C532       C1035   1.471       .  S
C533       C1047   1.490       .  S
C534       C1158   1.500       .  S
C535       C1023   1.498       .  S
N536        N537   1.320       .  A
N536        C540   1.351       .  A
N536       Cu544   2.104       .  S
N537        C538   1.340       .  A
N537       Cu543   2.047       .  S
C538        C539   1.382       .  A
C538        H541   1.081       .  S
C539        C540   1.397       .  A
C539       C1434   1.495       .  S
C540        H542   1.082       .  S
Cu543       N546   2.046       .  S
Cu544       N554   2.106       .  S
Cu545       N547   2.087       .  S
Cu545       N553   2.090       .  S
N546        N547   1.319       .  A
N546        C550   1.340       .  A
N547        C548   1.348       .  A
C548        C549   1.392       .  A
C548        H551   1.082       .  S
C549        C550   1.382       .  A
C549       C1050   1.487       .  S
C550        H552   1.081       .  S
N553        N554   1.324       .  A
N553        C557   1.347       .  A
N554        C555   1.350       .  A
C555        C556   1.393       .  A
C555        H558   1.082       .  S
C556        C557   1.389       .  A
C556       C1722   1.501   1_554  S
C557        H559   1.081       .  S
O560       Cu568   2.041       .  S
O560        C570   1.282       .  A
O561       Cu568   2.039   1_565  S
O561        C571   1.282       .  A
O562       Cu568   1.972       .  S
O562        C572   1.271       .  A
O563       Cu568   1.975       .  S
O563        C573   1.273       .  A
O564       Cu569   2.056       .  S
O564        C573   1.285       .  A
O565       Cu569   2.055       .  S
O565        C572   1.285       .  A
O566       Cu569   1.979   1_565  S
O566        C571   1.272       .  A
O567       Cu569   1.977       .  S
O567        C570   1.271       .  A
Cu568      Cu569   2.368       .  S
C570        C990   1.472       .  S
C571       C1530   1.472       .  S
C572        C999   1.496       .  S
C573       C1011   1.499       .  S
N574        N575   1.321       .  A
N574        C578   1.353       .  A
N574       Cu582   2.109       .  S
N575        C576   1.341       .  A
N575       Cu581   2.048       .  S
C576        C577   1.379       .  A
C576        H579   1.082       .  S
C577        C578   1.395       .  A
C577       C1203   1.490       .  S
C578        H580   1.082       .  S
Cu581       N584   2.049       .  S
Cu582       N592   2.110       .  S
Cu583       N585   2.100       .  S
Cu583       N591   2.102       .  S
N584        N585   1.320       .  A
N584        C588   1.342       .  A
N585        C586   1.350       .  A
C586        C587   1.394       .  A
C586        H589   1.081       .  S
C587        C588   1.381       .  A
C587       C1014   1.491       .  S
C588        H590   1.082       .  S
N591        N592   1.325       .  A
N591        C595   1.348   1_545  A
N592        C593   1.353   1_545  A
C593        C594   1.392       .  A
C593        H596   1.082       .  S
C594        C595   1.389       .  A
C594       C1674   1.501       .  S
C595        H597   1.082       .  S
N598        N599   1.320       .  A
N598        C602   1.351       .  A
N598       Cu606   2.104       .  S
N599        C600   1.341       .  A
N599       Cu605   2.045       .  S
C600        C601   1.380       .  A
C600        H603   1.082       .  S
C601        C602   1.396       .  A
C601       C1026   1.491       .  S
C602        H604   1.081       .  S
Cu605       N608   2.044       .  S
Cu606       N616   2.106       .  S
Cu607       N609   2.094       .  S
Cu607       N615   2.096       .  S
N608        N609   1.319       .  A
N608        C612   1.339       .  A
N609        C610   1.349       .  A
C610        C611   1.396       .  A
C610        H613   1.080       .  S
C611        C612   1.381       .  A
C611        C987   1.493       .  S
C612        H614   1.082       .  S
N615        N616   1.324       .  A
N615        C619   1.349       .  A
N616        C617   1.349       .  A
C617        C618   1.392       .  A
C617        H620   1.082       .  S
C618        C619   1.390       .  A
C618        C975   1.501       .  S
C619        H621   1.081       .  S
O622       Cu630   2.029       .  S
O622        C632   1.280       .  A
O623       Cu630   2.034       .  S
O623        C633   1.281       .  A
O624       Cu630   1.979   1_565  S
O624        C634   1.273       .  A
O625       Cu630   1.981       .  S
O625        C635   1.274       .  A
O626       Cu631   2.036       .  S
O626        C635   1.282       .  A
O627       Cu631   2.040   1_565  S
O627        C634   1.284       .  A
O628       Cu631   1.976       .  S
O628        C633   1.273       .  A
O629       Cu631   1.971       .  S
O629        C632   1.271       .  A
Cu630      Cu631   2.374       .  S
C632        C951   1.463       .  S
C633        C963   1.471       .  S
C634       C1374   1.489       .  S
C635        C939   1.482       .  S
N636        N637   1.320       .  A
N636        C640   1.351       .  A
N636       Cu644   2.101       .  S
N637        C638   1.339       .  A
N637       Cu643   2.046       .  S
C638        C639   1.381       .  A
C638        H641   1.081       .  S
C639        C640   1.396       .  A
C639       C1194   1.493       .  S
C640        H642   1.082       .  S
Cu643       N646   2.044       .  S
Cu644       N654   2.102       .  S
Cu645       N647   2.075       .  S
Cu645       N653   2.078       .  S
N646        N647   1.320       .  A
N646        C650   1.341       .  A
N647        C648   1.347       .  A
C648        C649   1.385       .  A
C648        H651   1.082       .  S
C649        C650   1.375       .  A
C649        C966   1.469       .  S
C650        H652   1.082       .  S
N653        N654   1.323       .  A
N653        C657   1.343       .  A
N654        C655   1.351       .  A
C655        C656   1.391   1_545  A
C655        H658   1.082   1_545  S
C656        C657   1.386   1_565  A
C656       C1638   1.494       .  S
C657        H659   1.081       .  S
O660       Cu668   1.985       .  S
O660        C670   1.272       .  A
O661       Cu668   1.983       .  S
O661        C671   1.274       .  A
O662       Cu668   2.051       .  S
O662        C672   1.284       .  A
O663       Cu668   2.043   1_655  S
O663        C673   1.284       .  A
O664       Cu669   1.978   1_655  S
O664        C673   1.272       .  A
O665       Cu669   1.975       .  S
O665        C672   1.273       .  A
O666       Cu669   2.053       .  S
O666        C671   1.284       .  A
O667       Cu669   2.050       .  S
O667        C670   1.283       .  A
Cu668      Cu669   2.367       .  S
C670        C927   1.478       .  S
C671        C915   1.497       .  S
C672        C906   1.492       .  S
C673       C1254   1.490       .  S
N674        N675   1.317       .  A
N674        C678   1.345       .  A
N674       Cu682   2.073       .  S
N675        C676   1.341       .  A
N675       Cu681   2.045       .  S
C676        C677   1.385       .  A
C676        H679   1.080       .  S
C677        C678   1.392       .  A
C677       C1302   1.488       .  S
C678        H680   1.082   1_455  S
Cu681       N684   2.045       .  S
Cu682       N692   2.076       .  S
Cu683       N685   2.113       .  S
Cu683       N691   2.113       .  S
N684        N685   1.321       .  A
N684        C688   1.338       .  A
N685        C686   1.355       .  A
C686        C687   1.399       .  A
C686        H689   1.082       .  S
C687        C688   1.380       .  A
C687        C930   1.497       .  S
C688        H690   1.081       .  S
N691        N692   1.323       .  A
N691        C695   1.353       .  A
N692        C693   1.343       .  A
C693        C694   1.386   1_455  A
C693        H696   1.081   1_455  S
C694        C695   1.393   1_655  A
C694       C1734   1.497       .  S
C695        H697   1.082       .  S
N698        N699   1.322       .  A
N698        C702   1.350       .  A
N698       Cu706   2.092       .  S
N699        C700   1.341       .  A
N699       Cu705   2.046       .  S
C700        C701   1.375       .  A
C700        H703   1.082       .  S
C701        C702   1.388       .  A
C701        C942   1.475       .  S
C702        H704   1.082       .  S
Cu705       N708   2.046       .  S
Cu706       N716   2.094       .  S
Cu707       N709   2.097       .  S
Cu707       N715   2.099       .  S
N708        N709   1.319       .  A
N708        C712   1.340       .  A
N709        C710   1.350       .  A
C710        C711   1.396       .  A
C710        H713   1.081       .  S
C711        C712   1.382       .  A
C711        C903   1.493       .  S
C712        H714   1.082       .  S
N715        N716   1.323       .  A
N715        C719   1.346       .  A
N716        C717   1.350       .  A
C717        C718   1.393       .  A
C717        H720   1.081       .  S
C718        C719   1.393       .  A
C718        C891   1.504       .  S
C719        H721   1.080       .  S
N722        N723   1.319   1_455  A
N722        C726   1.346       .  A
N722       Cu730   2.079       .  S
N723        C724   1.341       .  A
N723       Cu729   2.053       .  S
C724        C725   1.385   1_655  A
C724        H727   1.079       .  S
C725        C726   1.391       .  A
C725       C1086   1.491       .  S
C726        H728   1.082       .  S
Cu729       N732   2.056       .  S
Cu730       N740   2.080       .  S
Cu731       N733   2.102       .  S
Cu731       N739   2.101       .  S
N732        N733   1.321   1_655  A
N732        C736   1.342       .  A
N733        C734   1.349       .  A
C734        C735   1.396       .  A
C734        H737   1.081       .  S
C735        C736   1.384   1_455  A
C735        C918   1.497       .  S
C736        H738   1.082       .  S
N739        N740   1.321       .  A
N739        C743   1.349       .  A
N740        C741   1.345       .  A
C741        C742   1.391       .  A
C741        H744   1.079       .  S
C742        C743   1.395       .  A
C742       C1782   1.504       .  S
C743        H745   1.081       .  S
N746        N747   1.320   1_545  A
N746        C750   1.348       .  A
N746       Cu754   2.093       .  S
N747        C748   1.343       .  A
N747       Cu753   2.051       .  S
C748        C749   1.383   1_565  A
C748        H751   1.081       .  S
C749        C750   1.392       .  A
C749       C1002   1.490       .  S
C750        H752   1.082       .  S
Cu753       N756   2.048       .  S
Cu754       N764   2.094       .  S
Cu755       N757   2.086       .  S
Cu755       N763   2.087       .  S
N756        N757   1.321   1_565  A
N756        C760   1.340       .  A
N757        C758   1.348       .  A
C758        C759   1.390       .  A
C758        H761   1.082       .  S
C759        C760   1.378   1_545  A
C759        C954   1.480       .  S
C760        H762   1.082       .  S
N763        N764   1.323       .  A
N763        C767   1.348       .  A
N764        C765   1.348       .  A
C765        C766   1.389       .  A
C765        H768   1.082       .  S
C766        C767   1.388       .  A
C766       C1767   1.493       .  S
C767        H769   1.082       .  S
N770        N771   1.318       .  A
N770        C774   1.345       .  A
N770       Cu778   2.070       .  S
N771        C772   1.341   1_554  A
N771       Cu777   2.044   1_554  S
C772        C773   1.382   1_556  A
C772        H775   1.082       .  S
C773        C774   1.390       .  A
C773       C1122   1.483       .  S
C774        H776   1.081       .  S
Cu777       N780   2.044       .  S
Cu778       N788   2.073       .  S
Cu779       N781   2.100       .  S
Cu779       N787   2.101       .  S
N780        N781   1.321   1_556  A
N780        C784   1.337       .  A
N781        C782   1.352       .  A
C782        C783   1.395       .  A
C782        H785   1.082       .  S
C783        C784   1.379   1_554  A
C783       C1038   1.490       .  S
C784        H786   1.081       .  S
N787        N788   1.323       .  A
N787        C791   1.351       .  A
N788        C789   1.342       .  A
C789        C790   1.384       .  A
C789        H792   1.081       .  S
C790        C791   1.391       .  A
C790       C1755   1.492       .  S
C791        H793   1.082       .  S
C794        C795   1.532       .  S
C794        C800   1.550       .  S
C794        C798   1.530       .  S
C794       C1266   1.550       .  S
C795        H802   1.086       .  S
C795        C796   1.370       .  D
C796        C797   1.556       .  S
C796        C894   1.512       .  S
C797        C801   1.555       .  S
C797        C799   1.554       .  S
C797        H803   1.107       .  S
C798        H804   1.087       .  S
C798        C799   1.359       .  D
C799       C1143   1.492       .  S
C800        H805   1.082       .  S
C800        C801   1.376       .  D
C801        C879   1.510       .  S
C806        C807   1.548       .  S
C806        C812   1.555       .  S
C806        C810   1.551       .  S
C806        C867   1.570       .  S
C807        H814   1.086       .  S
C807        C808   1.372       .  D
C808        C809   1.540       .  S
C808        C978   1.503       .  S
C809        C813   1.537       .  S
C809        C811   1.545       .  S
C809        H815   1.109       .  S
C810        H816   1.085       .  S
C810        C811   1.377       .  D
C811       C1230   1.511       .  S
C812        H817   1.079       .  S
C812        C813   1.363       .  D
C813       C1470   1.495       .  S
C818        C819   1.545       .  S
C818        C824   1.551       .  S
C818        C822   1.551       .  S
C818        C855   1.562       .  S
C819        H826   1.086       .  S
C819        C820   1.366       .  D
C820        C821   1.536       .  S
C820       C1539   1.492       .  S
C821        C825   1.537       .  S
C821        C823   1.540       .  S
C821        H827   1.109       .  S
C822        H828   1.086       .  S
C822        C823   1.374       .  D
C823       C1578   1.501       .  S
C824        H829   1.080       .  S
C824        C825   1.369       .  D
C825       C1386   1.495       .  S
C830        C831   1.551       .  S
C830        C836   1.547       .  S
C830        C834   1.560       .  S
C830        C843   1.562       .  S
C831        H838   1.086       .  S
C831        C832   1.370       .  D
C832        C833   1.531       .  S
C832       C1506   1.492       .  S
C833        C837   1.534       .  S
C833        C835   1.531       .  S
C833        H839   1.111       .  S
C834        H840   1.080       .  S
C834        C835   1.371       .  D
C835       C1350   1.496       .  S
C836        H841   1.086       .  S
C836        C837   1.368       .  D
C837       C1059   1.495       .  S
C842        C846   1.590       .  S
C842        C858   1.593       .  S
C842        C870   1.595       .  S
C842        C882   1.596       .  S
C843        C844   1.411       .  A
C843        C848   1.419       .  A
C844        C845   1.411       .  A
C844        H849   1.076       .  S
C845        C846   1.430       .  A
C845        C852   1.445       .  S
C846        C847   1.418       .  A
C847        C848   1.409       .  A
C847        H850   1.079       .  S
C848        C851   1.444       .  S
C851        N853   1.157       .  T
C852        N854   1.158       .  T
C855        C856   1.415       .  A
C855        C860   1.417       .  A
C856        C857   1.412       .  A
C856        H861   1.076       .  S
C857        C858   1.427       .  A
C857        C864   1.445       .  S
C858        C859   1.421       .  A
C859        C860   1.408       .  A
C859        H862   1.078       .  S
C860        C863   1.445       .  S
C863        N865   1.157       .  T
C864        N866   1.157       .  T
C867        C868   1.413       .  A
C867        C872   1.420       .  A
C868        C869   1.410       .  A
C868        H873   1.075       .  S
C869        C870   1.430       .  A
C869        C876   1.445       .  S
C870        C871   1.420       .  A
C871        C872   1.415       .  A
C871        H874   1.079       .  S
C872        C875   1.443       .  S
C875        N877   1.157       .  T
C876        N878   1.157       .  T
C879        C880   1.402       .  A
C879        C884   1.410       .  A
C880        C881   1.415       .  A
C880        H885   1.085       .  S
C881        C882   1.435       .  A
C881        C888   1.444       .  S
C882        C883   1.423       .  A
C883        C884   1.410       .  A
C883        H886   1.078       .  S
C884        C887   1.445       .  S
C887        N889   1.157       .  T
C888        N890   1.157       .  T
C891        C892   1.410       .  A
C891        C896   1.416       .  A
C892        C893   1.410       .  A
C892        H897   1.083       .  S
C893        C894   1.416       .  A
C893        C900   1.441       .  S
C894        C895   1.410       .  A
C895        C896   1.402       .  A
C895        H898   1.085       .  S
C896        C899   1.444       .  S
C899        N901   1.158       .  T
C900        N902   1.158       .  T
C903        C904   1.411       .  A
C903        C908   1.411       .  A
C904        C905   1.405       .  A
C904        H909   1.084       .  S
C905        C906   1.412       .  A
C905        C912   1.444       .  S
C906        C907   1.410       .  A
C907        C908   1.400       .  A
C907        H910   1.085       .  S
C908        C911   1.444       .  S
C911        N913   1.157       .  T
C912        N914   1.157       .  T
C915        C916   1.410       .  A
C915        C920   1.413       .  A
C916        C917   1.401       .  A
C916        H921   1.085       .  S
C917        C918   1.412       .  A
C917        C924   1.443       .  S
C918        C919   1.411       .  A
C919        C920   1.407       .  A
C919        H922   1.084       .  S
C920        C923   1.444       .  S
C923        N925   1.157       .  T
C924        N926   1.157       .  T
C927        C928   1.398       .  A
C927        C932   1.412       .  A
C928        C929   1.402       .  A
C928        H933   1.085       .  S
C929        C930   1.421       .  A
C929        C936   1.444       .  S
C930        C931   1.407       .  A
C931        C932   1.407       .  A
C931        H934   1.084   1_455  S
C932        C935   1.444   1_455  S
C935        N937   1.157       .  T
C936        N938   1.157       .  T
C939        C940   1.402       .  A
C939        C944   1.417       .  A
C940        C941   1.403       .  A
C940        H945   1.083       .  S
C941        C942   1.413       .  A
C941        C948   1.444       .  S
C942        C943   1.398       .  A
C943        C944   1.399       .  A
C943        H946   1.085       .  S
C944        C947   1.445       .  S
C947        N949   1.157       .  T
C948        N950   1.157       .  T
C951        C952   1.400       .  A
C951        C956   1.406   1_545  A
C952        C953   1.400       .  A
C952        H957   1.085       .  S
C953        C954   1.414       .  A
C953        C960   1.443       .  S
C954        C955   1.406   1_545  A
C955        C956   1.399       .  A
C955        H958   1.085       .  S
C956        C959   1.445       .  S
C959        N961   1.157       .  T
C960        N962   1.157       .  T
C963        C964   1.402       .  A
C963        C968   1.412       .  A
C964        C965   1.403       .  A
C964        H969   1.085       .  S
C965        C966   1.411       .  A
C965        C972   1.444       .  S
C966        C967   1.397       .  A
C967        C968   1.396       .  A
C967        H970   1.085       .  S
C968        C971   1.444       .  S
C971        N973   1.157       .  T
C972        N974   1.157   1_545  T
C975        C976   1.404       .  A
C975        C980   1.417       .  A
C976        C977   1.405       .  A
C976        H981   1.085       .  S
C977        C978   1.416       .  A
C977        C984   1.440       .  S
C978        C979   1.407       .  A
C979        C980   1.410       .  A
C979        H982   1.085       .  S
C980        C983   1.443       .  S
C983        N985   1.157       .  T
C984        N986   1.156       .  T
C987        C988   1.411       .  A
C987        C992   1.416       .  A
C988        C989   1.402       .  A
C988        H993   1.084       .  S
C989        C990   1.406       .  A
C989        C996   1.444       .  S
C990        C991   1.402       .  A
C991        C992   1.402       .  A
C991        H994   1.085       .  S
C992        C995   1.443       .  S
C995        N997   1.157       .  T
C996        N998   1.157       .  T
C999       C1000   1.405       .  A
C999       C1004   1.423       .  A
C1000      C1001   1.406       .  A
C1000      H1005   1.084       .  S
C1001      C1002   1.418       .  A
C1001      C1008   1.443       .  S
C1002      C1003   1.399       .  A
C1003      C1004   1.398       .  A
C1003      H1006   1.085       .  S
C1004      C1007   1.445       .  S
C1007      N1009   1.157       .  T
C1008      N1010   1.158       .  T
C1011      C1012   1.413       .  A
C1011      C1016   1.415       .  A
C1012      C1013   1.400       .  A
C1012      H1017   1.084       .  S
C1013      C1014   1.409       .  A
C1013      C1020   1.444       .  S
C1014      C1015   1.409       .  A
C1015      C1016   1.407       .  A
C1015      H1018   1.084       .  S
C1016      C1019   1.443       .  S
C1019      N1021   1.157       .  T
C1020      N1022   1.157       .  T
C1023      C1024   1.412       .  A
C1023      C1028   1.414       .  A
C1024      C1025   1.400       .  A
C1024      H1029   1.084       .  S
C1025      C1026   1.409       .  A
C1025      C1032   1.444       .  S
C1026      C1027   1.410       .  A
C1027      C1028   1.407       .  A
C1027      H1030   1.084       .  S
C1028      C1031   1.443       .  S
C1031      N1033   1.157       .  T
C1032      N1034   1.157       .  T
C1035      C1036   1.397   1_554  A
C1035      C1040   1.410       .  A
C1036      C1037   1.400       .  A
C1036      H1041   1.085       .  S
C1037      C1038   1.419   1_556  A
C1037      C1044   1.444       .  S
C1038      C1039   1.406       .  A
C1039      C1040   1.403       .  A
C1039      H1042   1.084       .  S
C1040      C1043   1.445       .  S
C1043      N1045   1.157       .  T
C1044      N1046   1.157       .  T
C1047      C1048   1.403       .  A
C1047      C1052   1.421       .  A
C1048      C1049   1.402       .  A
C1048      H1053   1.085       .  S
C1049      C1050   1.418       .  A
C1049      C1056   1.443       .  S
C1050      C1051   1.400       .  A
C1051      C1052   1.399       .  A
C1051      H1054   1.085       .  S
C1052      C1055   1.445   1_554  S
C1055      N1057   1.157       .  T
C1056      N1058   1.157       .  T
C1059      C1060   1.405       .  A
C1059      C1064   1.412       .  A
C1060      C1061   1.408       .  A
C1060      H1065   1.085       .  S
C1061      C1062   1.417       .  A
C1061      C1068   1.443       .  S
C1062      C1063   1.405       .  A
C1063      C1064   1.401       .  A
C1063      H1066   1.084       .  S
C1064      C1067   1.442       .  S
C1067      N1069   1.157       .  T
C1068      N1070   1.157       .  T
C1071      C1072   1.413       .  A
C1071      C1076   1.415       .  A
C1072      C1073   1.399       .  A
C1072      H1077   1.084       .  S
C1073      C1074   1.407       .  A
C1073      C1080   1.444       .  S
C1074      C1075   1.408       .  A
C1075      C1076   1.404       .  A
C1075      H1078   1.084       .  S
C1076      C1079   1.443       .  S
C1079      N1081   1.157       .  T
C1080      N1082   1.157       .  T
C1083      C1084   1.403       .  A
C1083      C1088   1.420       .  A
C1084      C1085   1.402       .  A
C1084      H1089   1.085       .  S
C1085      C1086   1.419       .  A
C1085      C1092   1.443   1_455  S
C1086      C1087   1.402       .  A
C1087      C1088   1.398       .  A
C1087      H1090   1.084       .  S
C1088      C1091   1.446       .  S
C1091      N1093   1.158       .  T
C1092      N1094   1.158       .  T
C1095      C1096   1.403       .  A
C1095      C1100   1.421       .  A
C1096      C1097   1.403       .  A
C1096      H1101   1.085       .  S
C1097      C1098   1.419       .  A
C1097      C1104   1.443       .  S
C1098      C1099   1.400       .  A
C1099      C1100   1.397       .  A
C1099      H1102   1.085       .  S
C1100      C1103   1.445       .  S
C1103      N1105   1.157       .  T
C1104      N1106   1.158       .  T
C1107      C1108   1.409       .  A
C1107      C1112   1.408       .  A
C1108      C1109   1.403       .  A
C1108      H1113   1.084       .  S
C1109      C1110   1.413       .  A
C1109      C1116   1.443       .  S
C1110      C1111   1.412       .  A
C1111      C1112   1.399       .  A
C1111      H1114   1.084       .  S
C1112      C1115   1.444       .  S
C1115      N1117   1.157       .  T
C1116      N1118   1.157       .  T
C1119      C1120   1.410       .  A
C1119      C1124   1.414       .  A
C1120      C1121   1.396       .  A
C1120      H1125   1.084       .  S
C1121      C1122   1.409       .  A
C1121      C1128   1.444       .  S
C1122      C1123   1.408       .  A
C1123      C1124   1.402       .  A
C1123      H1126   1.084       .  S
C1124      C1127   1.444       .  S
C1127      N1129   1.157       .  T
C1128      N1130   1.157       .  T
C1131      C1132   1.408       .  A
C1131      C1136   1.410       .  A
C1132      C1133   1.401       .  A
C1132      H1137   1.085       .  S
C1133      C1134   1.413       .  A
C1133      C1140   1.443       .  S
C1134      C1135   1.410       .  A
C1135      C1136   1.400       .  A
C1135      H1138   1.083       .  S
C1136      C1139   1.444       .  S
C1139      N1141   1.157       .  T
C1140      N1142   1.157       .  T
C1143      C1144   1.405       .  A
C1143      C1148   1.414       .  A
C1144      C1145   1.409       .  A
C1144      H1149   1.085       .  S
C1145      C1146   1.414       .  A
C1145      C1152   1.443       .  S
C1146      C1147   1.404       .  A
C1147      C1148   1.405       .  A
C1147      H1150   1.085       .  S
C1148      C1151   1.443       .  S
C1151      N1153   1.157       .  T
C1152      N1154   1.157       .  T
C1155      C1156   1.410       .  A
C1155      C1160   1.408       .  A
C1156      C1157   1.409       .  A
C1156      H1161   1.084       .  S
C1157      C1158   1.415       .  A
C1157      C1164   1.443       .  S
C1158      C1159   1.413       .  A
C1159      C1160   1.399       .  A
C1159      H1162   1.084       .  S
C1160      C1163   1.444       .  S
C1163      N1165   1.157       .  T
C1164      N1166   1.157       .  T
C1167      C1168   1.412       .  A
C1167      C1172   1.410       .  A
C1168      C1169   1.405       .  A
C1168      H1173   1.083       .  S
C1169      C1170   1.410       .  A
C1169      C1176   1.443       .  S
C1170      C1171   1.409       .  A
C1171      C1172   1.396       .  A
C1171      H1174   1.085       .  S
C1172      C1175   1.444       .  S
C1175      N1177   1.157       .  T
C1176      N1178   1.157       .  T
C1179      C1180   1.413       .  A
C1179      C1184   1.413       .  A
C1180      C1181   1.403       .  A
C1180      H1185   1.084       .  S
C1181      C1182   1.406       .  A
C1181      C1188   1.444   1_545  S
C1182      C1183   1.407       .  A
C1183      C1184   1.403       .  A
C1183      H1186   1.085       .  S
C1184      C1187   1.443       .  S
C1187      N1189   1.157       .  T
C1188      N1190   1.157       .  T
C1191      C1192   1.398       .  A
C1191      C1196   1.409       .  A
C1192      C1193   1.401       .  A
C1192      H1197   1.085       .  S
C1193      C1194   1.420       .  A
C1193      C1200   1.444       .  S
C1194      C1195   1.407       .  A
C1195      C1196   1.404       .  A
C1195      H1198   1.084   1_545  S
C1196      C1199   1.445   1_545  S
C1199      N1201   1.157       .  T
C1200      N1202   1.157       .  T
C1203      C1204   1.407       .  A
C1203      C1208   1.408       .  A
C1204      C1205   1.405       .  A
C1204      H1209   1.085       .  S
C1205      C1206   1.416       .  A
C1205      C1212   1.443       .  S
C1206      C1207   1.414       .  A
C1207      C1208   1.404       .  A
C1207      H1210   1.084       .  S
C1208      C1211   1.444       .  S
C1211      N1213   1.157       .  T
C1212      N1214   1.157       .  T
C1215      C1216   1.412       .  A
C1215      C1220   1.416       .  A
C1216      C1217   1.401       .  A
C1216      H1221   1.084       .  S
C1217      C1218   1.408       .  A
C1217      C1224   1.444       .  S
C1218      C1219   1.408       .  A
C1219      C1220   1.405       .  A
C1219      H1222   1.085       .  S
C1220      C1223   1.443       .  S
C1223      N1225   1.157       .  T
C1224      N1226   1.157       .  T
C1227      C1228   1.406       .  A
C1227      C1232   1.411       .  A
C1228      C1229   1.409       .  A
C1228      H1233   1.085       .  S
C1229      C1230   1.419       .  A
C1229      C1236   1.441       .  S
C1230      C1231   1.408       .  A
C1231      C1232   1.401       .  A
C1231      H1234   1.076       .  S
C1232      C1235   1.444       .  S
C1235      N1237   1.157       .  T
C1236      N1238   1.157       .  T
C1239      C1240   1.408       .  A
C1239      C1244   1.407       .  A
C1240      C1241   1.404       .  A
C1240      H1245   1.084       .  S
C1241      C1242   1.414       .  A
C1241      C1248   1.443       .  S
C1242      C1243   1.412       .  A
C1243      C1244   1.396       .  A
C1243      H1246   1.084       .  S
C1244      C1247   1.445       .  S
C1247      N1249   1.157       .  T
C1248      N1250   1.157       .  T
C1251      C1252   1.402       .  A
C1251      C1256   1.420       .  A
C1252      C1253   1.400       .  A
C1252      H1257   1.084       .  S
C1253      C1254   1.419       .  A
C1253      C1260   1.445       .  S
C1254      C1255   1.402       .  A
C1255      C1256   1.403       .  A
C1255      H1258   1.085       .  S
C1256      C1259   1.443       .  S
C1259      N1261   1.158       .  T
C1260      N1262   1.157       .  T
C1263      C1264   1.395       .  A
C1263      C1268   1.409       .  A
C1264      C1265   1.401       .  A
C1264      H1269   1.085       .  S
C1265      C1266   1.428       .  A
C1265      C1272   1.445       .  S
C1266      C1267   1.414       .  A
C1267      C1268   1.410       .  A
C1267      H1270   1.078       .  S
C1268      C1271   1.443       .  S
C1271      N1273   1.157       .  T
C1272      N1274   1.157       .  T
C1275      C1276   1.398       .  A
C1275      C1280   1.418       .  A
C1276      C1277   1.397       .  A
C1276      H1281   1.085       .  S
C1277      C1278   1.423       .  A
C1277      C1284   1.446       .  S
C1278      C1279   1.405       .  A
C1279      C1280   1.406       .  A
C1279      H1282   1.084       .  S
C1280      C1283   1.444       .  S
C1283      N1285   1.158       .  T
C1284      N1286   1.157       .  T
C1287      C1288   1.406       .  A
C1287      C1292   1.407       .  A
C1288      C1289   1.401       .  A
C1288      H1293   1.084       .  S
C1289      C1290   1.415       .  A
C1289      C1296   1.444       .  S
C1290      C1291   1.411       .  A
C1291      C1292   1.399       .  A
C1291      H1294   1.084       .  S
C1292      C1295   1.444       .  S
C1295      N1297   1.157       .  T
C1296      N1298   1.157       .  T
C1299      C1300   1.402       .  A
C1299      C1304   1.416       .  A
C1300      C1301   1.403       .  A
C1300      H1305   1.085       .  S
C1301      C1302   1.419       .  A
C1301      C1308   1.443       .  S
C1302      C1303   1.402       .  A
C1303      C1304   1.396       .  A
C1303      H1306   1.084       .  S
C1304      C1307   1.445   1_455  S
C1307      N1309   1.157       .  T
C1308      N1310   1.158       .  T
C1311      C1312   1.409       .  A
C1311      C1316   1.411       .  A
C1312      C1313   1.401       .  A
C1312      H1317   1.084       .  S
C1313      C1314   1.412       .  A
C1313      C1320   1.444       .  S
C1314      C1315   1.410       .  A
C1315      C1316   1.397       .  A
C1315      H1318   1.085       .  S
C1316      C1319   1.444       .  S
C1319      N1321   1.157       .  T
C1320      N1322   1.157   1_455  T
C1323      C1324   1.410       .  A
C1323      C1328   1.413       .  A
C1324      C1325   1.400       .  A
C1324      H1329   1.085   1_455  S
C1325      C1326   1.411       .  A
C1325      C1332   1.443   1_455  S
C1326      C1327   1.411       .  A
C1327      C1328   1.406       .  A
C1327      H1330   1.084       .  S
C1328      C1331   1.444       .  S
C1331      N1333   1.157       .  T
C1332      N1334   1.157       .  T
C1335      C1336   1.413       .  A
C1335      C1340   1.415       .  A
C1336      C1337   1.402       .  A
C1336      H1341   1.084       .  S
C1337      C1338   1.408       .  A
C1337      C1344   1.444       .  S
C1338      C1339   1.409       .  A
C1339      C1340   1.405       .  A
C1339      H1342   1.084       .  S
C1340      C1343   1.443       .  S
C1343      N1345   1.157       .  T
C1344      N1346   1.157       .  T
C1347      C1348   1.408       .  A
C1347      C1352   1.415       .  A
C1348      C1349   1.408       .  A
C1348      H1353   1.084       .  S
C1349      C1350   1.415       .  A
C1349      C1356   1.444       .  S
C1350      C1351   1.404       .  A
C1351      C1352   1.401       .  A
C1351      H1354   1.085       .  S
C1352      C1355   1.444       .  S
C1355      N1357   1.157       .  T
C1356      N1358   1.157       .  T
C1359      C1360   1.408       .  A
C1359      C1364   1.409       .  A
C1360      C1361   1.403       .  A
C1360      H1365   1.084       .  S
C1361      C1362   1.414       .  A
C1361      C1368   1.443       .  S
C1362      C1363   1.412       .  A
C1363      C1364   1.400       .  A
C1363      H1366   1.084       .  S
C1364      C1367   1.444       .  S
C1367      N1369   1.157       .  T
C1368      N1370   1.157       .  T
C1371      C1372   1.398       .  A
C1371      C1376   1.414       .  A
C1372      C1373   1.401       .  A
C1372      H1377   1.085       .  S
C1373      C1374   1.421       .  A
C1373      C1380   1.444       .  S
C1374      C1375   1.404       .  A
C1375      C1376   1.402       .  A
C1375      H1378   1.085       .  S
C1376      C1379   1.444       .  S
C1379      N1381   1.157       .  T
C1380      N1382   1.157       .  T
C1383      C1384   1.403       .  A
C1383      C1388   1.414       .  A
C1384      C1385   1.401       .  A
C1384      H1389   1.085       .  S
C1385      C1386   1.415       .  A
C1385      C1392   1.442       .  S
C1386      C1387   1.407       .  A
C1387      C1388   1.403       .  A
C1387      H1390   1.084       .  S
C1388      C1391   1.443       .  S
C1391      N1393   1.157       .  T
C1392      N1394   1.157       .  T
C1395      C1396   1.404       .  A
C1395      C1400   1.420       .  A
C1396      C1397   1.397       .  A
C1396      H1401   1.084       .  S
C1397      C1398   1.414       .  A
C1397      C1404   1.445       .  S
C1398      C1399   1.401       .  A
C1399      C1400   1.402       .  A
C1399      H1402   1.085       .  S
C1400      C1403   1.443       .  S
C1403      N1405   1.158       .  T
C1404      N1406   1.157       .  T
C1407      C1408   1.400       .  A
C1407      C1412   1.409       .  A
C1408      C1409   1.399       .  A
C1408      H1413   1.083       .  S
C1409      C1410   1.412       .  A
C1409      C1416   1.444       .  S
C1410      C1411   1.405       .  A
C1411      C1412   1.401       .  A
C1411      H1414   1.084       .  S
C1412      C1415   1.445       .  S
C1415      N1417   1.157       .  T
C1416      N1418   1.157       .  T
C1419      C1420   1.410       .  A
C1419      C1424   1.413       .  A
C1420      C1421   1.398       .  A
C1420      H1425   1.084       .  S
C1421      C1422   1.410       .  A
C1421      C1428   1.444       .  S
C1422      C1423   1.410       .  A
C1423      C1424   1.404       .  A
C1423      H1426   1.084       .  S
C1424      C1427   1.444       .  S
C1427      N1429   1.157       .  T
C1428      N1430   1.157       .  T
C1431      C1432   1.399       .  A
C1431      C1436   1.411       .  A
C1432      C1433   1.403       .  A
C1432      H1437   1.085       .  S
C1433      C1434   1.420       .  A
C1433      C1440   1.444       .  S
C1434      C1435   1.406       .  A
C1435      C1436   1.403       .  A
C1435      H1438   1.084       .  S
C1436      C1439   1.444   1_554  S
C1439      N1441   1.157       .  T
C1440      N1442   1.157       .  T
C1443      C1444   1.406       .  A
C1443      C1448   1.422       .  A
C1444      C1445   1.406       .  A
C1444      H1449   1.084       .  S
C1445      C1446   1.418       .  A
C1445      C1452   1.444       .  S
C1446      C1447   1.399       .  A
C1447      C1448   1.398       .  A
C1447      H1450   1.085       .  S
C1448      C1451   1.445       .  S
C1451      N1453   1.157       .  T
C1452      N1454   1.158       .  T
C1455      C1456   1.402       .  A
C1455      C1460   1.406       .  A
C1456      C1457   1.403       .  A
C1456      H1461   1.085   1_554  S
C1457      C1458   1.418       .  A
C1457      C1464   1.443   1_554  S
C1458      C1459   1.411       .  A
C1459      C1460   1.401       .  A
C1459      H1462   1.083       .  S
C1460      C1463   1.445       .  S
C1463      N1465   1.157       .  T
C1464      N1466   1.158       .  T
C1467      C1468   1.410       .  A
C1467      C1472   1.417       .  A
C1468      C1469   1.406       .  A
C1468      H1473   1.084       .  S
C1469      C1470   1.410       .  A
C1469      C1476   1.444       .  S
C1470      C1471   1.401       .  A
C1471      C1472   1.405       .  A
C1471      H1474   1.079       .  S
C1472      C1475   1.443       .  S
C1475      N1477   1.157       .  T
C1476      N1478   1.157       .  T
C1479      C1480   1.397       .  A
C1479      C1484   1.417       .  A
C1480      C1481   1.396       .  A
C1480      H1485   1.085       .  S
C1481      C1482   1.423       .  A
C1481      C1488   1.445       .  S
C1482      C1483   1.405       .  A
C1483      C1484   1.405       .  A
C1483      H1486   1.084       .  S
C1484      C1487   1.444       .  S
C1487      N1489   1.158       .  T
C1488      N1490   1.157       .  T
C1491      C1492   1.409       .  A
C1491      C1496   1.415       .  A
C1492      C1493   1.401       .  A
C1492      H1497   1.084       .  S
C1493      C1494   1.407       .  A
C1493      C1500   1.444       .  S
C1494      C1495   1.402       .  A
C1495      C1496   1.402       .  A
C1495      H1498   1.085       .  S
C1496      C1499   1.443       .  S
C1499      N1501   1.157       .  T
C1500      N1502   1.157       .  T
C1503      C1504   1.407       .  A
C1503      C1508   1.412       .  A
C1504      C1505   1.405       .  A
C1504      H1509   1.084       .  S
C1505      C1506   1.411       .  A
C1505      C1512   1.442       .  S
C1506      C1507   1.406       .  A
C1507      C1508   1.402       .  A
C1507      H1510   1.085       .  S
C1508      C1511   1.443       .  S
C1511      N1513   1.157       .  T
C1512      N1514   1.157       .  T
C1515      C1516   1.412       .  A
C1515      C1520   1.416       .  A
C1516      C1517   1.399       .  A
C1516      H1521   1.084       .  S
C1517      C1518   1.405       .  A
C1517      C1524   1.444       .  S
C1518      C1519   1.404       .  A
C1519      C1520   1.402       .  A
C1519      H1522   1.085       .  S
C1520      C1523   1.444       .  S
C1523      N1525   1.157       .  T
C1524      N1526   1.157       .  T
C1527      C1528   1.405       .  A
C1527      C1532   1.420       .  A
C1528      C1529   1.402       .  A
C1528      H1533   1.084       .  S
C1529      C1530   1.410       .  A
C1529      C1536   1.445       .  S
C1530      C1531   1.398       .  A
C1531      C1532   1.402       .  A
C1531      H1534   1.085       .  S
C1532      C1535   1.444       .  S
C1535      N1537   1.157       .  T
C1536      N1538   1.157       .  T
C1539      C1540   1.406       .  A
C1539      C1544   1.413       .  A
C1540      C1541   1.407       .  A
C1540      H1545   1.085       .  S
C1541      C1542   1.413       .  A
C1541      C1548   1.443       .  S
C1542      C1543   1.401       .  A
C1543      C1544   1.399       .  A
C1543      H1546   1.085       .  S
C1544      C1547   1.441       .  S
C1547      N1549   1.156       .  T
C1548      N1550   1.157       .  T
C1551      C1552   1.409       .  A
C1551      C1556   1.407       .  A
C1552      C1553   1.403       .  A
C1552      H1557   1.084       .  S
C1553      C1554   1.412       .  A
C1553      C1560   1.443       .  S
C1554      C1555   1.413       .  A
C1555      C1556   1.397       .  A
C1555      H1558   1.084       .  S
C1556      C1559   1.444       .  S
C1559      N1561   1.157       .  T
C1560      N1562   1.157       .  T
C1563      C1564   1.404       .  A
C1563      C1568   1.406       .  A
C1564      C1565   1.402       .  A
C1564      H1569   1.085       .  S
C1565      C1566   1.415       .  A
C1565      C1572   1.444       .  S
C1566      C1567   1.410       .  A
C1567      C1568   1.399       .  A
C1567      H1570   1.084       .  S
C1568      C1571   1.444       .  S
C1571      N1573   1.157       .  T
C1572      N1574   1.157       .  T
C1575      C1576   1.404       .  A
C1575      C1580   1.417       .  A
C1576      C1577   1.406       .  A
C1576      H1581   1.085       .  S
C1577      C1578   1.416       .  A
C1577      C1584   1.442       .  S
C1578      C1579   1.406       .  A
C1579      C1580   1.407       .  A
C1579      H1582   1.084       .  S
C1580      C1583   1.443       .  S
C1583      N1585   1.157       .  T
C1584      N1586   1.157       .  T
C1587      C1588   1.407       .  A
C1587      C1592   1.407       .  A
C1588      C1589   1.404       .  A
C1588      H1593   1.085       .  S
C1589      C1590   1.415       .  A
C1589      C1596   1.443       .  S
C1590      C1591   1.412       .  A
C1591      C1592   1.399       .  A
C1591      H1594   1.084       .  S
C1592      C1595   1.444       .  S
C1595      N1597   1.157       .  T
C1596      N1598   1.157       .  T
C1599      C1600   1.406       .  A
C1599      C1604   1.416       .  A
C1600      C1601   1.405       .  A
C1600      H1605   1.084       .  S
C1601      C1602   1.410       .  A
C1601      C1608   1.444       .  S
C1602      C1603   1.399       .  A
C1603      C1604   1.399       .  A
C1603      H1606   1.085       .  S
C1604      C1607   1.444       .  S
C1607      N1609   1.157       .  T
C1608      N1610   1.157       .  T
C1611      C1612   1.400       .  A
C1611      C1616   1.411       .  A
C1612      C1613   1.406       .  A
C1612      H1617   1.083       .  S
C1613      C1614   1.419       .  A
C1613      C1620   1.443       .  S
C1614      C1615   1.406       .  A
C1615      C1616   1.403       .  A
C1615      H1618   1.084       .  S
C1616      C1619   1.444       .  S
C1619      N1621   1.157       .  T
C1620      N1622   1.157       .  T
C1623      C1624   1.404       .  A
C1623      C1628   1.417       .  A
C1624      C1625   1.409   1_556  A
C1624      H1629   1.084       .  S
C1625      C1626   1.413   1_554  A
C1625      C1632   1.443       .  S
C1626      C1627   1.400       .  A
C1627      C1628   1.400       .  A
C1627      H1630   1.085       .  S
C1628      C1631   1.445       .  S
C1631      N1633   1.157       .  T
C1632      N1634   1.157       .  T
C1635      C1636   1.416       .  A
C1635      C1640   1.423       .  A
C1636      C1637   1.400       .  A
C1636      H1641   1.072       .  S
C1637      C1638   1.410       .  A
C1637      C1644   1.446       .  S
C1638      C1639   1.404       .  A
C1639      C1640   1.409       .  A
C1639      H1642   1.084   1_565  S
C1640      C1643   1.444       .  S
C1643      N1645   1.157       .  T
C1644      N1646   1.157       .  T
C1647      C1648   1.411       .  A
C1647      C1652   1.426   1_565  A
C1648      C1649   1.417       .  A
C1648      H1653   1.078       .  S
C1649      C1650   1.437   1_556  A
C1649      C1656   1.441   1_556  S
C1650      C1651   1.418   1_564  A
C1651      C1652   1.410       .  A
C1651      H1654   1.084       .  S
C1652      C1655   1.442       .  S
C1655      N1657   1.158       .  T
C1656      N1658   1.158       .  T
C1659      C1660   1.401       .  A
C1659      C1664   1.407       .  A
C1660      C1661   1.409       .  A
C1660      H1665   1.085       .  S
C1661      C1662   1.422       .  A
C1661      C1668   1.442       .  S
C1662      C1663   1.412       .  A
C1663      C1664   1.403       .  A
C1663      H1666   1.082       .  S
C1664      C1667   1.443       .  S
C1667      N1669   1.157       .  T
C1668      N1670   1.158       .  T
C1671      C1672   1.410       .  A
C1671      C1676   1.420       .  A
C1672      C1673   1.411       .  A
C1672      H1677   1.084       .  S
C1673      C1674   1.415       .  A
C1673      C1680   1.443   1_565  S
C1674      C1675   1.403       .  A
C1675      C1676   1.406       .  A
C1675      H1678   1.085       .  S
C1676      C1679   1.441       .  S
C1679      N1681   1.157       .  T
C1680      N1682   1.157       .  T
C1683      C1684   1.406       .  A
C1683      C1688   1.412       .  A
C1684      C1685   1.409       .  A
C1684      H1689   1.085       .  S
C1685      C1686   1.418       .  A
C1685      C1692   1.444       .  S
C1686      C1687   1.406       .  A
C1687      C1688   1.402       .  A
C1687      H1690   1.081       .  S
C1688      C1691   1.444       .  S
C1691      N1693   1.157       .  T
C1692      N1694   1.157       .  T
C1695      C1696   1.409       .  A
C1695      C1700   1.427       .  A
C1696      C1697   1.412   1_565  A
C1696      H1701   1.085       .  S
C1697      C1698   1.435   1_645  A
C1697      C1704   1.444   1_655  S
C1698      C1699   1.413   1_455  A
C1699      C1700   1.413       .  A
C1699      H1702   1.085   1_554  S
C1700      C1703   1.441       .  S
C1703      N1705   1.158       .  T
C1704      N1706   1.158       .  T
C1707      C1708   1.412       .  A
C1707      C1712   1.418       .  A
C1708      C1709   1.414       .  A
C1708      H1713   1.083       .  S
C1709      C1710   1.418       .  A
C1709      C1716   1.440       .  S
C1710      C1711   1.409       .  A
C1711      C1712   1.402       .  A
C1711      H1714   1.085       .  S
C1712      C1715   1.443       .  S
C1715      N1717   1.158       .  T
C1716      N1718   1.158       .  T
C1719      C1720   1.402       .  A
C1719      C1724   1.416       .  A
C1720      C1721   1.406       .  A
C1720      H1725   1.081       .  S
C1721      C1722   1.418       .  A
C1721      C1728   1.443       .  S
C1722      C1723   1.407   1_556  A
C1723      C1724   1.407   1_554  A
C1723      H1726   1.084       .  S
C1724      C1727   1.444   1_556  S
C1727      N1729   1.157       .  T
C1728      N1730   1.157       .  T
C1731      C1732   1.416       .  A
C1731      C1736   1.423       .  A
C1732      C1733   1.398       .  A
C1732      H1737   1.079       .  S
C1733      C1734   1.411       .  A
C1733      C1740   1.446       .  S
C1734      C1735   1.406       .  A
C1735      C1736   1.412       .  A
C1735      H1738   1.084   1_655  S
C1736      C1739   1.442   1_655  S
C1739      N1741   1.157       .  T
C1740      N1742   1.157       .  T
C1743      C1744   1.422   1_456  A
C1743      C1748   1.434       .  A
C1744      C1745   1.409   1_554  A
C1744      H1749   1.081       .  S
C1745      C1746   1.407       .  A
C1745      C1752   1.441   1_556  S
C1746      C1747   1.404       .  A
C1747      C1748   1.415   1_655  A
C1747      H1750   1.085       .  S
C1748      C1751   1.443       .  S
C1751      N1753   1.158   1_545  T
C1752      N1754   1.156       .  T
C1755      C1756   1.408       .  A
C1755      C1760   1.414       .  A
C1756      C1757   1.409       .  A
C1756      H1761   1.084       .  S
C1757      C1758   1.415       .  A
C1757      C1764   1.443       .  S
C1758      C1759   1.402       .  A
C1759      C1760   1.398       .  A
C1759      H1762   1.080       .  S
C1760      C1763   1.444       .  S
C1763      N1765   1.157       .  T
C1764      N1766   1.157       .  T
C1767      C1768   1.407       .  A
C1767      C1772   1.416       .  A
C1768      C1769   1.405       .  A
C1768      H1773   1.084       .  S
C1769      C1770   1.413       .  A
C1769      C1776   1.444       .  S
C1770      C1771   1.404       .  A
C1771      C1772   1.404       .  A
C1771      H1774   1.085       .  S
C1772      C1775   1.443       .  S
C1775      N1777   1.157       .  T
C1776      N1778   1.157       .  T
C1779      C1780   1.399       .  A
C1779      C1784   1.407       .  A
C1780      C1781   1.404       .  A
C1780      H1785   1.082       .  S
C1781      C1782   1.422       .  A
C1781      C1788   1.443       .  S
C1782      C1783   1.411       .  A
C1783      C1784   1.406       .  A
C1783      H1786   1.083       .  S
C1784      C1787   1.443       .  S
C1787      N1789   1.157       .  T
C1788      N1790   1.158       .  T
C1791      C1792   1.420       .  A
C1791      C1796   1.428       .  A
C1792      C1793   1.408       .  A
C1792      H1797   1.079       .  S
C1793      C1794   1.419       .  A
C1793      C1800   1.445       .  S
C1794      C1795   1.411       .  A
C1795      C1796   1.411       .  A
C1795      H1798   1.076       .  S
C1796      C1799   1.442   1_545  S
C1799      N1801   1.157       .  T
C1800      N1802   1.157       .  T
