geometry optimzed in LAMMPS
_audit_creation_date              2020-12-01 
_audit_creation_method            'lammps2cif' 
_symmetry_space_group_name_H-M    'P1' 
_symmetry_Int_Tables_number       1 
_symmetry_cell_setting            triclinic 
loop_ 
_symmetry_equiv_pos_as_xyz 
  x,y,z 
_cell_length_a                    46.4839742 
_cell_length_b                    46.8115375896114 
_cell_length_c                    46.76186327661756 
_cell_angle_alpha                 89.93719675475987 
_cell_angle_beta                  90.16978662149087 
_cell_angle_gamma                 89.95537282276453 
loop_ 
_atom_site_label 
_atom_site_type_symbol 
_atom_site_fract_x 
_atom_site_fract_y 
_atom_site_fract_z 
_atom_site_charge 
N1          N  0.27741364  0.73788690  0.81205224    -0.27400
N2          N  0.26008262  0.75990503  0.81615879    -0.35200
C3          C  0.26850991  0.77409509  0.83969228     0.01000
C4          C  0.29184204  0.75994295  0.85125756     0.07000
C5          C  0.29687444  0.73699287  0.83340067    -0.06100
H6          H  0.25745637  0.79236521  0.84860515     0.07600
H7          H  0.31320597  0.72069699  0.83589574     0.08800
Cu8        Cu  0.22323376  0.76718614  0.79247212     0.44200
Cu9        Cu  0.27277942  0.70943861  0.77836402     0.42000
Cu10       Cu  0.20444858  0.71301814  0.74079322     0.43900
N11         N  0.18608555  0.76819547  0.76815595    -0.34800
N12         N  0.17969254  0.74900109  0.74842145    -0.29000
C13         C  0.15526526  0.75689292  0.73508102    -0.05100
C14         C  0.14567861  0.78186041  0.74754234     0.07100
C15         C  0.16551809  0.78837234  0.76851539     0.00900
H16         H  0.14513350  0.74518894  0.71785708     0.08500
H17         H  0.16549792  0.80683163  0.78240987     0.07600
N18         N  0.23476221  0.68123519  0.73442942    -0.36200
N19         N  0.26055301  0.68115480  0.74646349    -0.28400
C20         C  0.27575122  0.65898120  0.73617142    -0.03600
C21         C  0.25842354  0.64415756  0.71727771     0.05000
C22         C  0.23256003  0.65866998  0.71681057     0.03100
H23         H  0.29741308  0.65350192  0.74271791     0.08200
H24         H  0.21370100  0.65352106  0.70421162     0.07000
N25         N  0.73730991  0.77506869  0.31598097    -0.27400
N26         N  0.75924048  0.77886913  0.29842259    -0.35200
C27         C  0.77425707  0.80192504  0.30687264     0.01000
C28         C  0.76080068  0.81335785  0.33051063     0.07000
C29         C  0.73734155  0.79604953  0.33562110    -0.06100
H30         H  0.79288910  0.81037479  0.29594242     0.07600
H31         H  0.72148237  0.79849613  0.35233001     0.08800
Cu32       Cu  0.76638264  0.75411724  0.26236777     0.44200
Cu33       Cu  0.70841910  0.74154491  0.31250314     0.42000
Cu34       Cu  0.71607547  0.69631407  0.25010192     0.43900
N35         N  0.76900246  0.72635990  0.22790657    -0.34800
N36         N  0.75158234  0.70432967  0.22420147    -0.29000
C37         C  0.76001148  0.68970714  0.20088243    -0.05100
C38         C  0.78341692  0.70359103  0.18910323     0.07100
C39         C  0.78842709  0.72681894  0.20662591     0.00900
H40         H  0.74935109  0.67090000  0.19262346     0.08500
H41         H  0.80519786  0.74265926  0.20432186     0.07600
N42         N  0.68267181  0.69256776  0.27949382    -0.36200
N43         N  0.68097864  0.70793299  0.30315239    -0.28400
C44         C  0.65779268  0.69959831  0.31817137    -0.03600
C45         C  0.64389281  0.67843938  0.30290753     0.05000
C46         C  0.66008595  0.67460244  0.27843946     0.03100
H47         H  0.65092153  0.70907398  0.33810240     0.08200
H48         H  0.65587369  0.65973451  0.26124301     0.07000
N49         N  0.70042213  0.26604661  0.72803981    -0.27400
N50         N  0.68419019  0.24294003  0.72953212    -0.35200
C51         C  0.66569854  0.24296635  0.70736446     0.01000
C52         C  0.67019819  0.26760575  0.69169087     0.07000
C53         C  0.69224347  0.28182348  0.70540476    -0.06100
H54         H  0.65050617  0.22609066  0.70272313     0.07600
H55         H  0.70279616  0.30119852  0.69843841     0.08800
Cu56       Cu  0.68890030  0.21233450  0.76128056     0.44200
Cu57       Cu  0.73556525  0.27275525  0.75411305     0.42000
Cu58       Cu  0.75180680  0.21956137  0.80782993     0.43900
N59         N  0.69889669  0.18456073  0.79442672    -0.34800
N60         N  0.72256723  0.18619136  0.81014375    -0.29000
C61         C  0.72344228  0.16378014  0.82815370    -0.05100
C62         C  0.69883513  0.14780442  0.82400259     0.07100
C63         C  0.68369903  0.16154849  0.80260295     0.00900
H64         H  0.74047008  0.15972049  0.84346138     0.08500
H65         H  0.66356752  0.15485461  0.79306491     0.07600
N66         N  0.77625842  0.25605371  0.80144395    -0.36200
N67         N  0.77083820  0.27465835  0.78082724    -0.28400
C68         C  0.79140865  0.29476091  0.78071046    -0.03600
C69         C  0.81022625  0.28893444  0.80276419     0.05000
C70         C  0.80009810  0.26432358  0.81559355     0.03100
H71         H  0.79243056  0.31241565  0.76580302     0.08200
H72         H  0.80983192  0.25277556  0.83318310     0.07000
N73         N  0.81962729  0.69881907  0.12040130    -0.27400
N74         N  0.82037094  0.67169701  0.12835641    -0.35200
C75         C  0.80754392  0.66914392  0.15403408     0.01000
C76         C  0.79895757  0.69602748  0.16283476     0.07000
C77         C  0.80707561  0.71433801  0.14112152    -0.06100
H78         H  0.80491979  0.64926556  0.16554372     0.07600
H79         H  0.80303836  0.73706888  0.13990580     0.08800
Cu80       Cu  0.83965209  0.63971747  0.10408131     0.44200
Cu81       Cu  0.83201582  0.71301690  0.08017583     0.42000
Cu82       Cu  0.85097982  0.65795444  0.02956999     0.43900
N83         N  0.86107008  0.61335651  0.07524196    -0.34800
N84         N  0.86352992  0.61939385  0.04771279    -0.29000
C85         C  0.87834855  0.59838763  0.03479794    -0.05100
C86         C  0.88614510  0.57849513  0.05523987     0.07100
C87         C  0.87497511  0.58864998  0.08068339     0.00900
H88         H  0.88434029  0.59838326  0.01246183     0.08500
H89         H  0.87695828  0.57892943  0.10159198     0.07600
N90         N  0.84411082  0.70029994  0.01813234    -0.36200
N91         N  0.83818965  0.72062233  0.03684819    -0.28400
C92         C  0.83559431  0.74568250  0.02294972    -0.03600
C93         C  0.84004827  0.74084316  0.99415080     0.05000
C94         C  0.84538866  0.71187761  0.99179800     0.03100
H95         H  0.83038665  0.76583315  0.03298396     0.08200
H96         H  0.84987418  0.70011574  0.97241801     0.07000
N97         N  0.01049984  0.87141073  0.66191227    -0.27400
N98         N  0.03794260  0.86629804  0.65647636    -0.35200
C99         C  0.04486640  0.87803062  0.63113608     0.01000
C100        C  0.02047075  0.89054769  0.61979870     0.07000
C101        C  0.99902997  0.88584197  0.63971026    -0.06100
H102        H  0.06600341  0.87717832  0.62153585     0.07600
H103        H  0.97699755  0.89325085  0.63860358     0.08800
Cu104      Cu  0.06467685  0.84327342  0.68348629     0.44200
Cu105      Cu  0.99096404  0.86137326  0.70073599     0.42000
Cu106      Cu  0.04059417  0.83848743  0.75632195     0.43900
N107        N  0.08741848  0.82234886  0.71535715    -0.34800
N108        N  0.07961064  0.82267168  0.74250859    -0.29000
C109        C  0.09935984  0.80862363  0.75816841    -0.05100
C110        C  0.12017233  0.79847396  0.73983028     0.07100
C111        C  0.11199240  0.80738556  0.71285044     0.00900
H112        H  0.09809119  0.80517990  0.78100713     0.08500
H113        H  0.12328357  0.80373692  0.69299479     0.07600
N114        N  0.99745205  0.84627792  0.76333080    -0.36200
N115        N  0.97906508  0.85395386  0.74307587    -0.28400
C116        C  0.95259281  0.85575774  0.75454471    -0.03600
C117        C  0.95454179  0.84871990  0.78324332     0.05000
C118        C  0.98323995  0.84284463  0.78809497     0.03100
H119        H  0.93331505  0.86144314  0.74282884     0.08200
H120        H  0.99301192  0.83615055  0.80803340     0.07000
N121        N  0.60895232  0.00653157  0.89684360    -0.27400
N122        N  0.60524247  0.03454007  0.89706259    -0.35200
C123        C  0.58132769  0.04072939  0.91199434     0.01000
C124        C  0.56920180  0.01534833  0.92108187     0.07000
C125        C  0.58715197  0.99410194  0.91102217    -0.06100
H126        H  0.57348145  0.06209447  0.91607017     0.07600
H127        H  0.58532495  0.97140283  0.91496739     0.08800
Cu128      Cu  0.63329993  0.06296512  0.87759729     0.44200
Cu129      Cu  0.64557526  0.98676279  0.88117335     0.42000
Cu130      Cu  0.70331050  0.03450998  0.86048528     0.43900
N131        N  0.66568380  0.08668289  0.85850134    -0.34800
N132        N  0.69191622  0.07672377  0.85402928    -0.29000
C133        C  0.70804151  0.09735526  0.84211158    -0.05100
C134        C  0.69091818  0.12117047  0.83838643     0.07100
C135        C  0.66418147  0.11370141  0.84880121     0.00900
H136        H  0.73010423  0.09470020  0.83527890     0.08500
H137        H  0.64504136  0.12686623  0.84921250     0.07600
N138        N  0.70791043  0.99072310  0.86423747    -0.36200
N139        N  0.68681616  0.97314737  0.87128773    -0.28400
C140        C  0.69734475  0.94642022  0.87320003    -0.03600
C141        C  0.72634965  0.94737307  0.86691487     0.05000
C142        C  0.73236236  0.97570409  0.86138361     0.03100
H143        H  0.68511721  0.92795202  0.87990389     0.08200
H144        H  0.75318047  0.98487393  0.85669756     0.07000
C145        C  0.85826651  0.84250892  0.86137749     0.80100
N146        N  0.83515751  0.85981439  0.85714818    -0.78200
C147        C  0.81284941  0.85966225  0.87582740     0.82600
N148        N  0.81302147  0.84114347  0.89819960    -0.78100
C149        C  0.83560947  0.82317841  0.90216472     0.82700
N150        N  0.85838947  0.82441370  0.88409689    -0.79800
N151        N  0.51835198  0.44269819  0.55095667    -0.27400
N152        N  0.53257176  0.44987695  0.52756480    -0.35200
C153        C  0.55429474  0.43131843  0.52359727     0.01000
C154        C  0.55414259  0.41202445  0.54593115     0.07000
C155        C  0.53120871  0.41985696  0.56296942    -0.06100
H156        H  0.56949537  0.43226507  0.50615194     0.07600
H157        H  0.52401195  0.40937152  0.58228848     0.08800
Cu158      Cu  0.52332756  0.48566470  0.50309178     0.44200
Cu159      Cu  0.48128652  0.46336833  0.56466066     0.42000
Cu160      Cu  0.46072277  0.52594343  0.52368384     0.43900
N161        N  0.51012764  0.52263907  0.48247321    -0.34800
N162        N  0.48626211  0.53647233  0.48910903    -0.29000
C163        C  0.48229628  0.55797742  0.47043254    -0.05100
C164        C  0.50515431  0.55806465  0.45165138     0.07100
C165        C  0.52245524  0.53547691  0.45986761     0.00900
H166        H  0.46417927  0.57250425  0.47058908     0.08500
H167        H  0.54187854  0.52817748  0.44947216     0.07600
N168        N  0.43874799  0.51177348  0.55936939    -0.36200
N169        N  0.44526612  0.48813098  0.57348578    -0.28400
C170        C  0.42571465  0.48409391  0.59427135    -0.03600
C171        C  0.40650866  0.50664915  0.59351491     0.05000
C172        C  0.41541235  0.52383541  0.57124856     0.03100
H173        H  0.42578464  0.46635940  0.60912252     0.08200
H174        H  0.40526127  0.54325300  0.56373080     0.07000
N175        N  0.50554912  0.99315771  0.96030932    -0.27400
N176        N  0.51204981  0.01701809  0.97400764    -0.35200
C177        C  0.53511005  0.02908319  0.96154020     0.01000
C178        C  0.54383276  0.01165226  0.93935720     0.07000
C179        C  0.52476924  0.98901645  0.93925545    -0.06100
H180        H  0.54549784  0.04840881  0.96888559     0.07600
H181        H  0.52485163  0.97086877  0.92495614     0.08800
Cu182      Cu  0.49139206  0.03042498  0.01093963     0.44200
Cu183      Cu  0.47087120  0.96717930  0.97068662     0.42000
Cu184      Cu  0.43240236  0.98548302  0.03482821     0.43900
N185        N  0.46870069  0.03729110  0.04849447    -0.34800
N186        N  0.44631801  0.02172137  0.05632315    -0.29000
C187        C  0.43597143  0.03192666  0.08110521    -0.05100
C188        C  0.45304319  0.05452634  0.08959307     0.07100
C189        C  0.47367849  0.05732485  0.06855832     0.00900
H190        H  0.41805681  0.02281719  0.09267655     0.08500
H191        H  0.49093839  0.07279947  0.06781694     0.07600
N192        N  0.42305319  0.94967226  0.01038731    -0.36200
N193        N  0.43618992  0.94381289  0.98604847    -0.28400
C194        C  0.42444541  0.92014642  0.97463264    -0.03600
C195        C  0.40335969  0.91034913  0.99299790     0.05000
C196        C  0.40312637  0.92945289  0.01551665     0.03100
H197        H  0.43130773  0.91035111  0.95485144     0.08200
H198        H  0.38923096  0.92895639  0.03402357     0.07000
N199        N  0.11204941  0.44725073  0.13870918    -0.27400
N200        N  0.10662546  0.41955242  0.13754724    -0.35200
C201        C  0.08144381  0.41552239  0.12382760     0.01000
C202        C  0.07032963  0.44199882  0.11656962     0.07000
C203        C  0.09015949  0.46161423  0.12647689    -0.06100
H204        H  0.07242239  0.39486987  0.11864492     0.07600
H205        H  0.08991191  0.48443876  0.12285375     0.08800
Cu206      Cu  0.13507912  0.38870523  0.15265483     0.44200
Cu207      Cu  0.15180294  0.46386724  0.15001475     0.42000
Cu208      Cu  0.20927508  0.41176791  0.15593717     0.43900
N209        N  0.16845739  0.36324456  0.16784795    -0.34800
N210        N  0.19580851  0.37101935  0.16732793    -0.29000
C211        C  0.21194151  0.35005320  0.17887287    -0.05100
C212        C  0.19379709  0.32835630  0.18757270     0.07100
C213        C  0.16640633  0.33744631  0.18039298     0.00900
H214        H  0.23492539  0.35133608  0.18238468     0.08500
H215        H  0.14640552  0.32636987  0.18446853     0.07600
N216        N  0.21611416  0.45545592  0.15191923    -0.36200
N217        N  0.19511130  0.47453125  0.15093857    -0.28400
C218        C  0.20660723  0.50088109  0.14973210    -0.03600
C219        C  0.23621162  0.49818401  0.14989442     0.05000
C220        C  0.24153849  0.46917325  0.15137138     0.03100
H221        H  0.19434460  0.52051798  0.14897734     0.08200
H222        H  0.26233392  0.45884469  0.15260247     0.07000
N223        N  0.57300833  0.64593689  0.30739630    -0.27400
N224        N  0.58139409  0.64376487  0.33436751    -0.35200
C225        C  0.60785963  0.65516895  0.33702645     0.01000
C226        C  0.61671338  0.66427610  0.31031614     0.07000
C227        C  0.59419885  0.65801122  0.29203433    -0.06100
H228        H  0.61993168  0.65628749  0.35680529     0.07600
H229        H  0.59292067  0.66272915  0.26941351     0.08800
Cu230      Cu  0.55691209  0.62392787  0.36577875     0.44200
Cu231      Cu  0.53220060  0.63483072  0.29308150     0.42000
Cu232      Cu  0.48275311  0.60870647  0.34634098     0.43900
N233        N  0.52832246  0.60188667  0.39182158    -0.34800
N234        N  0.50086716  0.59802164  0.38536762    -0.29000
C235        C  0.48824330  0.58299123  0.40636281    -0.05100
C236        C  0.50886022  0.57656051  0.42664950     0.07100
C237        C  0.53405773  0.58866874  0.41677447     0.00900
H238        H  0.46614078  0.57573986  0.40598127     0.08500
H239        H  0.55506812  0.58760461  0.42675115     0.07600
N240        N  0.47127220  0.61583667  0.30414409    -0.36200
N241        N  0.48932746  0.62554653  0.28464026    -0.28400
C242        C  0.47542720  0.62763361  0.25946022    -0.03600
C243        C  0.44736453  0.61848890  0.26323318     0.05000
C244        C  0.44552731  0.61112276  0.29183436     0.03100
H245        H  0.48510340  0.63502871  0.23978510     0.08200
H246        H  0.42695721  0.60260523  0.30281784     0.07000
N247        N  0.32227149  0.76354309  0.92267882    -0.27400
N248        N  0.32516655  0.79039144  0.91444306    -0.35200
C249        C  0.31519673  0.79314337  0.88756617     0.01000
C250        C  0.30626367  0.76659120  0.87830877     0.07000
C251        C  0.31103998  0.74826085  0.90100648    -0.06100
H252        H  0.31440880  0.81298952  0.87572328     0.07600
H253        H  0.30542282  0.72587222  0.90220225     0.08800
Cu254      Cu  0.34274832  0.82170919  0.94029477     0.44200
Cu255      Cu  0.33046936  0.75028024  0.96414919     0.42000
Cu256      Cu  0.34902118  0.80573412  0.01603733     0.43900
N257        N  0.36179923  0.84883029  0.96968482    -0.34800
N258        N  0.36262862  0.84400562  0.99755631    -0.29000
C259        C  0.37658794  0.86577169  0.01034340    -0.05100
C260        C  0.38542402  0.88473272  0.98939401     0.07100
C261        C  0.37579559  0.87328183  0.96391731     0.00900
H262        H  0.38138230  0.86688199  0.03296467     0.08500
H263        H  0.37899267  0.88190192  0.94268981     0.07600
N264        N  0.34142460  0.76306321  0.02668669    -0.36200
N265        N  0.33551461  0.74305177  0.00756977    -0.28400
C266        C  0.33329428  0.71767957  0.02085271    -0.03600
C267        C  0.33798325  0.72183649  0.04967987     0.05000
C268        C  0.34306629  0.75081045  0.05274851     0.03100
H269        H  0.32872870  0.69764793  0.01026751     0.08200
H270        H  0.34806969  0.76203221  0.07234745     0.07000
C271        C  0.35977664  0.61194701  0.17570492     0.80100
N272        N  0.35807449  0.63356881  0.15645933    -0.78200
C273        C  0.33792985  0.63295658  0.13540449     0.82600
N274        N  0.31893811  0.61091369  0.13415010    -0.78100
C275        C  0.32061300  0.58903980  0.15328594     0.82700
N276        N  0.34146206  0.58946913  0.17373170    -0.79800
N277        N  0.03030992  0.01166882  0.48305057    -0.27400
N278        N  0.04575258  0.00638707  0.50627427    -0.35200
C279        C  0.06503575  0.02757615  0.50974817     0.01000
C280        C  0.06192141  0.04660926  0.48729838     0.07000
C281        C  0.03984245  0.03583630  0.47071984    -0.06100
H282        H  0.07994854  0.02920067  0.52747623     0.07600
H283        H  0.03031907  0.04566534  0.45199540     0.08800
Cu284      Cu  0.03892330  0.97111037  0.53269068     0.44200
Cu285      Cu  0.99448983  0.98819339  0.47121568     0.42000
Cu286      Cu  0.97655115  0.92736008  0.51463045     0.43900
N287        N  0.02486367  0.93650540  0.55706696    -0.34800
N288        N  0.00130626  0.92175946  0.55114215    -0.29000
C289        C  0.99621500  0.90322502  0.57252426    -0.05100
C290        C  0.01791171  0.90594106  0.59252763     0.07100
C291        C  0.03583996  0.92706337  0.58205094     0.00900
H292        H  0.97806030  0.88879724  0.57339571     0.08500
H293        H  0.05472090  0.93578814  0.59242112     0.07600
N294        N  0.95292947  0.93958208  0.47902871    -0.36200
N295        N  0.95862669  0.96294992  0.46421002    -0.28400
C296        C  0.93760828  0.96716835  0.44485729    -0.03600
C297        C  0.91816010  0.94502233  0.44721876     0.05000
C298        C  0.92852463  0.92780549  0.46895285     0.03100
H299        H  0.93650474  0.98509811  0.43028446     0.08200
H300        H  0.91832586  0.90901594  0.47778392     0.07000
N301        N  0.64188530  0.27227893  0.61959240    -0.27400
N302        N  0.64018605  0.29938767  0.62729649    -0.35200
C303        C  0.64984335  0.30201733  0.65432547     0.01000
C304        C  0.65723430  0.27512466  0.66413463     0.07000
C305        C  0.65188853  0.25678852  0.64168117    -0.06100
H306        H  0.65112585  0.32191492  0.66599579     0.07600
H307        H  0.65618024  0.23408737  0.64098745     0.08800
Cu308      Cu  0.62317377  0.33080415  0.60098488     0.44200
Cu309      Cu  0.63410633  0.25794670  0.57850456     0.42000
Cu310      Cu  0.61562259  0.31146262  0.52608615     0.43900
N311        N  0.60138483  0.35539322  0.57106414    -0.34800
N312        N  0.59991043  0.34913294  0.54351804    -0.29000
C313        C  0.58369966  0.36894243  0.53019493    -0.05100
C314        C  0.57406881  0.38812952  0.55045721     0.07100
C315        C  0.58553983  0.37889881  0.57612320     0.00900
H316        H  0.57800461  0.36846731  0.50775461     0.08500
H317        H  0.58232759  0.38832756  0.59698106     0.07600
N318        N  0.62543812  0.26944123  0.51576776    -0.36200
N319        N  0.63141485  0.24969510  0.53514090    -0.28400
C320        C  0.63474764  0.22435447  0.52204516    -0.03600
C321        C  0.63064564  0.22839403  0.49305305     0.05000
C322        C  0.62478366  0.25716943  0.48976916     0.03100
H323        H  0.63912907  0.20438390  0.53288337     0.08200
H324        H  0.61940410  0.26814264  0.47009586     0.07000
N325        N  0.38819520  0.13491831  0.23978967    -0.27400
N326        N  0.37870177  0.13006343  0.21358892    -0.35200
C327        C  0.35225226  0.14136913  0.21072470     0.01000
C328        C  0.34459032  0.15335080  0.23657500     0.07000
C329        C  0.36774745  0.14880920  0.25461207    -0.06100
H330        H  0.33963366  0.14101455  0.19125485     0.07600
H331        H  0.37012875  0.15625979  0.27638173     0.08800
Cu332      Cu  0.40284478  0.10918760  0.18295035     0.44200
Cu333      Cu  0.42993538  0.12578459  0.25225997     0.42000
Cu334      Cu  0.47962634  0.10252923  0.19630999     0.43900
N335        N  0.43155088  0.09141924  0.15430299    -0.34800
N336        N  0.45976944  0.09079276  0.15806853    -0.29000
C337        C  0.47197955  0.07874411  0.13492782    -0.05100
C338        C  0.45030119  0.07095224  0.11615805     0.07100
C339        C  0.42500761  0.07912506  0.12916956     0.00900
H340        H  0.49474801  0.07448917  0.13267801     0.08500
H341        H  0.40338101  0.07619700  0.12105790     0.07600
N342        N  0.49174319  0.11088465  0.23845231    -0.36200
N343        N  0.47353845  0.11924800  0.25847205    -0.28400
C344        C  0.48784761  0.12266125  0.28321967    -0.03600
C345        C  0.51640823  0.11586976  0.27880355     0.05000
C346        C  0.51815702  0.10847635  0.25016030     0.03100
H347        H  0.47812188  0.12955326  0.30303838     0.08200
H348        H  0.53715584  0.10162740  0.23874705     0.07000
N349        N  0.76814440  0.88448928  0.36005161    -0.27400
N350        N  0.79335038  0.87347102  0.36726240    -0.35200
C351        C  0.79446529  0.84621482  0.35825692     0.01000
C352        C  0.76849689  0.83974811  0.34539718     0.07000
C353        C  0.75227771  0.86438817  0.34690631    -0.06100
H354        H  0.81286263  0.83223847  0.36071987     0.07600
H355        H  0.73105876  0.86786206  0.33796100     0.08800
Cu356      Cu  0.82500115  0.89618587  0.38878102     0.44200
Cu357      Cu  0.75760733  0.92696132  0.36582620     0.42000
Cu358      Cu  0.81201807  0.97203744  0.39795896     0.43900
N359        N  0.85333531  0.92366651  0.40925355    -0.34800
N360        N  0.84920520  0.95155040  0.41121426    -0.29000
C361        C  0.87192646  0.96342674  0.42447242    -0.05100
C362        C  0.89094849  0.94190460  0.43164120     0.07100
C363        C  0.87851037  0.91695277  0.42186626     0.00900
H364        H  0.87398998  0.98591910  0.42933570     0.08500
H365        H  0.88723471  0.89558399  0.42347148     0.07600
N366        N  0.77186289  0.98655716  0.38542932    -0.36200
N367        N  0.75213619  0.97005591  0.37348692    -0.28400
C368        C  0.72809174  0.98538519  0.36912449    -0.03600
C369        C  0.73292240  0.01276235  0.37893382     0.05000
C370        C  0.76083487  0.01285245  0.38913295     0.03100
H371        H  0.70825226  0.97696118  0.36041080     0.08200
H372        H  0.77193521  0.03039469  0.39938213     0.07000
C373        C  0.64776247  0.10138263  0.38445242     0.80100
N374        N  0.62660330  0.10073579  0.36449927    -0.78200
C375        C  0.60531393  0.12049701  0.36497725     0.82600
N376        N  0.60526197  0.14111498  0.38542315    -0.78100
C377        C  0.62651654  0.14179989  0.40546913     0.82700
N378        N  0.64765379  0.12177965  0.40500029    -0.79800
N379        N  0.28191843  0.19959259  0.24012944    -0.27400
N380        N  0.27824252  0.18411027  0.26351666    -0.35200
C381        C  0.30025384  0.16559198  0.26612120     0.01000
C382        C  0.31817876  0.16919597  0.24291641     0.07000
C383        C  0.30593093  0.19076616  0.22678312    -0.06100
H384        H  0.30265912  0.15024494  0.28327375     0.07600
H385        H  0.31418339  0.19981198  0.20715994     0.08800
Cu386      Cu  0.24293761  0.18799428  0.29023109     0.44200
Cu387      Cu  0.25515096  0.23315021  0.22826604     0.42000
Cu388      Cu  0.19286355  0.24472335  0.27312449     0.43900
N389        N  0.20721841  0.19767914  0.31485138    -0.34800
N390        N  0.18984449  0.21943581  0.30949673    -0.29000
C391        C  0.17055145  0.22158612  0.33080067    -0.05100
C392        C  0.17570438  0.19974896  0.35005680     0.07100
C393        C  0.19893501  0.18488806  0.33924252     0.00900
H394        H  0.15374128  0.23753867  0.33191418     0.08500
H395        H  0.20956296  0.16664996  0.34881475     0.07600
N396        N  0.20182633  0.26875063  0.23689403    -0.36200
N397        N  0.22543444  0.26564967  0.22148068    -0.28400
C398        C  0.22623516  0.28631920  0.20144882    -0.03600
C399        C  0.20162398  0.30271810  0.20401670     0.05000
C400        C  0.18658502  0.29094316  0.22658024     0.03100
H401        H  0.24338088  0.28911076  0.18610377     0.08200
H402        H  0.16664368  0.29866665  0.23561094     0.07000
N403        N  0.92478834  0.51557370  0.03066861    -0.27400
N404        N  0.93830289  0.52031171  0.05514207    -0.35200
C405        C  0.92602146  0.54287630  0.06818573     0.01000
C406        C  0.90418024  0.55306767  0.05076737     0.07000
C407        C  0.90413083  0.53540843  0.02711619    -0.06100
H408        H  0.93314510  0.55182105  0.08831801     0.07600
H409        H  0.88998056  0.53674178  0.00875103     0.08800
Cu410      Cu  0.97405815  0.49691097  0.06852865     0.44200
Cu411      Cu  0.93419576  0.48179407  0.00358412     0.42000
Cu412      Cu  0.99423648  0.43680136  0.02389777     0.43900
N413        N  0.00839207  0.46966143  0.07750707    -0.34800
N414        N  0.01464585  0.44686408  0.06202981    -0.29000
C415        C  0.03689609  0.43296954  0.07418686    -0.05100
C416        C  0.04540077  0.44805392  0.09813227     0.07100
C417        C  0.02707832  0.47130794  0.09950297     0.00900
H418        H  0.04686993  0.41396731  0.06556666     0.08500
H419        H  0.02723494  0.48810572  0.11536444     0.07600
N420        N  0.97001200  0.43074309  0.98715372    -0.36200
N421        N  0.94712738  0.44623181  0.98053321    -0.28400
C422        C  0.93488657  0.43546771  0.95677747    -0.03600
C423        C  0.95123756  0.41253650  0.94780001     0.05000
C424        C  0.97342824  0.41022260  0.96735143     0.03100
H425        H  0.91582609  0.44402001  0.94653952     0.08200
H426        H  0.99034631  0.39432954  0.96762372     0.07000
N427        N  0.09223366  0.11813305  0.49054243    -0.27400
N428        N  0.09813332  0.11130029  0.46376526    -0.35200
C429        C  0.08849121  0.08470456  0.45851605     0.01000
C430        C  0.07663913  0.07408141  0.48341531     0.07000
C431        C  0.07938088  0.09574741  0.50330261    -0.06100
H432        H  0.08999075  0.07394181  0.43811616     0.07600
H433        H  0.07142730  0.09572964  0.52501628     0.08800
Cu434      Cu  0.11902226  0.13863155  0.43580748     0.44200
Cu435      Cu  0.09894678  0.15879570  0.50722693     0.42000
Cu436      Cu  0.12184565  0.21326394  0.45653284     0.43900
N437        N  0.13807132  0.17027218  0.41132728    -0.34800
N438        N  0.13736206  0.19776439  0.41780512    -0.29000
C439        C  0.15016540  0.21263214  0.39670460    -0.05100
C440        C  0.15984777  0.19344777  0.37641380     0.07100
C441        C  0.15200831  0.16682465  0.38640938     0.00900
H442        H  0.15308447  0.23555355  0.39663244     0.08500
H443        H  0.15572517  0.14647738  0.37611587     0.07600
N444        N  0.11151387  0.22174187  0.49899526    -0.36200
N445        N  0.10380479  0.20179568  0.51752453    -0.28400
C446        C  0.10089625  0.21377473  0.54350629    -0.03600
C447        C  0.10708662  0.24260340  0.54126640     0.05000
C448        C  0.11371636  0.24692406  0.51275663     0.03100
H449        H  0.09558567  0.20219030  0.56281068     0.08200
H450        H  0.12084043  0.26664600  0.50300992     0.07000
N451        N  0.34146882  0.50352595  0.63613390    -0.27400
N452        N  0.34656205  0.53130635  0.63675436    -0.35200
C453        C  0.37064723  0.53674103  0.62180577     0.01000
C454        C  0.38138797  0.51105806  0.61187758     0.07000
C455        C  0.36248435  0.49045236  0.62140349    -0.06100
H456        H  0.37963484  0.55777608  0.61842291     0.07600
H457        H  0.36321004  0.46780809  0.61688160     0.08800
Cu458      Cu  0.32029618  0.56032457  0.65780028     0.44200
Cu459      Cu  0.30450884  0.48488190  0.65209426     0.42000
Cu460      Cu  0.24908175  0.53330191  0.67490883     0.43900
N461        N  0.28908400  0.58386916  0.67900090    -0.34800
N462        N  0.26256140  0.57461411  0.68332349    -0.29000
C463        C  0.24745136  0.59500360  0.69683142    -0.05100
C464        C  0.26549457  0.61787645  0.70179446     0.07100
C465        C  0.29175142  0.61013648  0.69037246     0.00900
H466        H  0.22537542  0.59276699  0.70376107     0.08500
H467        H  0.31131038  0.62265852  0.69027461     0.07600
N468        N  0.24316769  0.48955154  0.67166122    -0.36200
N469        N  0.26376652  0.47170660  0.66391398    -0.34400
C470        C  0.25309305  0.44502790  0.66304243    -0.03600
C471        C  0.22444512  0.44618469  0.67071052     0.05000
C472        C  0.21881381  0.47470365  0.67600525     0.03100
H473        H  0.26492419  0.42640805  0.65604743     0.08200
H474        H  0.19829556  0.48407522  0.68155596     0.07000
N475        N  0.95290655  0.37001530  0.88299868    -0.27400
N476        N  0.92503614  0.36957191  0.88857207    -0.35200
C477        C  0.92009616  0.38463313  0.91254377     0.01000
C478        C  0.94619768  0.39444466  0.92274209     0.07000
C479        C  0.96655443  0.38469820  0.90365963    -0.06100
H480        H  0.89910241  0.38811927  0.92185453     0.07600
H481        H  0.98940208  0.38909995  0.90400265     0.08800
Cu482      Cu  0.89522420  0.34865466  0.86311461     0.44200
Cu483      Cu  0.97056885  0.35454479  0.84550988     0.42000
Cu484      Cu  0.91936399  0.33576673  0.79065764     0.43900
N485        N  0.87082526  0.32782560  0.83243963    -0.34800
N486        N  0.87890858  0.32520005  0.80547860    -0.29000
C487        C  0.85824756  0.31151039  0.79078301    -0.05100
C488        C  0.83651072  0.30464662  0.80955704     0.07100
C489        C  0.84508121  0.31514500  0.83580729     0.00900
H490        H  0.85956983  0.30583001  0.76840894     0.08500
H491        H  0.83345136  0.31386312  0.85576492     0.07600
N492        N  0.96313365  0.33881383  0.78353704    -0.36200
N493        N  0.98197315  0.34496910  0.80385510    -0.28400
C494        C  0.00854707  0.34500881  0.79260541    -0.03600
C495        C  0.00622247  0.33834308  0.76394576     0.05000
C496        C  0.97720801  0.33458797  0.75881686     0.03100
H497        H  0.02802334  0.34999660  0.80429073     0.08200
H498        H  0.96706487  0.32948615  0.73860628     0.07000
C499        C  0.09772729  0.33587816  0.68099281     0.80100
N500        N  0.12072881  0.35345478  0.68408683    -0.78200
C501        C  0.14071062  0.35557442  0.66313537     0.82600
N502        N  0.13823340  0.33911230  0.63932763    -0.78100
C503        C  0.11559301  0.32099546  0.63632293     0.82700
N504        N  0.09518642  0.31970444  0.65700841    -0.79800
C505        C  0.03989059  0.36323238  0.73103591    -0.01900
C506        C  0.02960253  0.33756825  0.74283449     0.07700
C507        C  0.04166230  0.31128142  0.73454761    -0.02100
C508        C  0.06438879  0.31066247  0.71472186    -0.02100
C509        C  0.07439908  0.33635181  0.70239257     0.07900
C510        C  0.06188364  0.36265325  0.71048779    -0.02300
Br511      Br  0.07341702  0.39795293  0.69236843    -0.00800
Br512      Br  0.02339881  0.39922190  0.74275601    -0.00900
Br513      Br  0.08273666  0.27475217  0.70581810    -0.00800
Br514      Br  0.02719062  0.27620985  0.75076415    -0.00800
C515        C  0.16262846  0.40054330  0.64446995    -0.01900
C516        C  0.16271353  0.37823876  0.66477419     0.07700
C517        C  0.18298877  0.37843813  0.68729532    -0.02100
C518        C  0.20331146  0.40067046  0.68925352    -0.02100
C519        C  0.20331533  0.42277902  0.66878741     0.07900
C520        C  0.18311696  0.42254451  0.64627352    -0.02300
Br521      Br  0.18406251  0.45195487  0.61730047    -0.00800
Br522      Br  0.13330012  0.40210424  0.61517153    -0.00900
Br523      Br  0.23077881  0.40123729  0.72027095    -0.00800
Br524      Br  0.18321314  0.34804604  0.71521888    -0.00800
C525        C  0.13125314  0.25962999  0.58603232    -0.01900
C526        C  0.10974987  0.26340201  0.56499077     0.07700
C527        C  0.09072972  0.28683496  0.56691566    -0.02100
C528        C  0.09276481  0.30592170  0.59015614    -0.02100
C529        C  0.11390032  0.30171872  0.61142830     0.07900
C530        C  0.13321964  0.27866283  0.60923125    -0.02300
Br531      Br  0.16179191  0.27260433  0.63867275    -0.00800
Br532      Br  0.15883029  0.22899588  0.58261248    -0.00900
Br533      Br  0.06695749  0.33812413  0.59272212    -0.00800
Br534      Br  0.06136925  0.29233611  0.53818864    -0.00800
C535        C  0.69405981  0.08259283  0.36583353    -0.01900
C536        C  0.67027872  0.07951102  0.38410722     0.07700
C537        C  0.66733503  0.05495077  0.40116603    -0.02100
C538        C  0.68804574  0.03315099  0.39967563    -0.02100
C539        C  0.71168229  0.03595975  0.38104153     0.07900
C540        C  0.71479006  0.06078104  0.36425701    -0.02300
Br541      Br  0.74668621  0.06433318  0.33819087    -0.00800
Br542      Br  0.69800577  0.11669151  0.34295730    -0.00900
Br543      Br  0.68429612  0.99978145  0.42366439    -0.00800
Br544      Br  0.63459444  0.05111042  0.42617370    -0.00800
C545        C  0.56441831  0.13342983  0.29618379    -0.01900
C546        C  0.53972788  0.11637018  0.30045943     0.07700
C547        C  0.53693287  0.10044845  0.32602112    -0.02100
C548        C  0.55831808  0.10211882  0.34731036    -0.02100
C549        C  0.58259314  0.11949367  0.34311138     0.07900
C550        C  0.58591132  0.13473300  0.31741087    -0.02300
Br551      Br  0.62024912  0.15707420  0.31133333    -0.00800
Br552      Br  0.56840669  0.15623244  0.26202606    -0.00900
Br553      Br  0.55477279  0.08026716  0.38216761    -0.00800
Br554      Br  0.50462786  0.07513865  0.33152722    -0.00800
C555        C  0.60481476  0.16642234  0.44769502    -0.01900
C556        C  0.62712686  0.16439173  0.42743660     0.07700
C557        C  0.65063976  0.18339142  0.42881618    -0.02100
C558        C  0.65183064  0.20431274  0.45037326    -0.02100
C559        C  0.62961404  0.20622473  0.47068761     0.07900
C560        C  0.60616425  0.18718991  0.46940287    -0.02300
Br561      Br  0.57564910  0.18983389  0.49719044    -0.00800
Br562      Br  0.57285894  0.14014619  0.44636698    -0.00900
Br563      Br  0.68430614  0.22987521  0.45260584    -0.00800
Br564      Br  0.68079158  0.18144106  0.40056251    -0.00800
C565        C  0.31389924  0.69564275  0.08958400    -0.01900
C566        C  0.33818168  0.69958407  0.07207443     0.07700
C567        C  0.36212608  0.68134255  0.07501107    -0.02100
C568        C  0.36180506  0.65921835  0.09541829    -0.02100
C569        C  0.33768338  0.65552204  0.11329158     0.07900
C570        C  0.31369874  0.67375781  0.11029139    -0.02300
Br571      Br  0.28092929  0.66934967  0.13512646    -0.00800
Br572      Br  0.28064556  0.71983657  0.08460995    -0.00900
Br573      Br  0.39387473  0.63307572  0.09786022    -0.00800
Br574      Br  0.39548890  0.68686358  0.05117254    -0.00800
C575        C  0.42924867  0.59987418  0.21621860    -0.01900
C576        C  0.42452216  0.61621530  0.24117549     0.07700
C577        C  0.39795104  0.63044876  0.24485075    -0.02100
C578        C  0.37661508  0.62878964  0.22346936    -0.02100
C579        C  0.38164559  0.61284233  0.19848834     0.07900
C580        C  0.40781764  0.59822754  0.19496866    -0.02300
Br581      Br  0.41423998  0.57611989  0.16075788    -0.00800
Br582      Br  0.46446847  0.57854414  0.21144255    -0.00900
Br583      Br  0.34037121  0.64835342  0.22822832    -0.00800
Br584      Br  0.39100269  0.65336423  0.27844123    -0.00800
C585        C  0.26413214  0.53498013  0.17669006    -0.01900
C586        C  0.25765819  0.52140652  0.15064095     0.07700
C587        C  0.27197297  0.52966534  0.12549164    -0.02100
C588        C  0.29294036  0.55138744  0.12636882    -0.02100
C589        C  0.29930037  0.56539500  0.15244631     0.07900
C590        C  0.28485241  0.55688928  0.17768478    -0.02300
Br591      Br  0.29223583  0.57570352  0.21372664    -0.00800
Br592      Br  0.24445180  0.52338127  0.21111266    -0.00900
Br593      Br  0.31403886  0.56045565  0.09201254    -0.00800
Br594      Br  0.26237569  0.51138566  0.08973698    -0.00800
C595        C  0.78713280  0.90196867  0.89572099    -0.01900
C596        C  0.79023398  0.88165069  0.87368439     0.07700
C597        C  0.77196978  0.88269671  0.84957366    -0.02100
C598        C  0.75044053  0.90379001  0.84769269    -0.02100
C599        C  0.74745997  0.92408111  0.86968110     0.07900
C600        C  0.76560872  0.92298677  0.89381730    -0.02300
Br601      Br  0.76063485  0.95008279  0.92452110    -0.00800
Br602      Br  0.81357008  0.90230205  0.92766405    -0.00900
Br603      Br  0.72523557  0.90523610  0.81487521    -0.00800
Br604      Br  0.77628917  0.85513076  0.81924542    -0.00800
C605        C  0.91754303  0.87233067  0.81373492    -0.01900
C606        C  0.93081473  0.84712180  0.80411169     0.07700
C607        C  0.92130320  0.82043121  0.81423800    -0.02100
C608        C  0.89745338  0.81879510  0.83268622    -0.02100
C609        C  0.88356696  0.84408635  0.84201384     0.07900
C610        C  0.89425758  0.87093864  0.83288298    -0.02300
Br611      Br  0.87861932  0.90621723  0.84770226    -0.00800
Br612      Br  0.93233931  0.90892917  0.80161300    -0.00900
Br613      Br  0.88318969  0.78150707  0.84342041    -0.00800
Br614      Br  0.94066537  0.78594107  0.80227546    -0.00800
C615        C  0.81506769  0.76226680  0.95179308    -0.01900
C616        C  0.83863562  0.76209867  0.97081961     0.07700
C617        C  0.86061792  0.78257025  0.96785644    -0.02100
C618        C  0.85898359  0.80326196  0.94606681    -0.02100
C619        C  0.83592944  0.80286836  0.92638338     0.07900
C620        C  0.81381932  0.78242781  0.92943216    -0.02300
Br621      Br  0.78233114  0.78118072  0.90243326    -0.00800
Br622      Br  0.78419422  0.73518190  0.95676788    -0.00900
Br623      Br  0.88753618  0.83316411  0.94425951    -0.00800
Br624      Br  0.89359859  0.78157224  0.99297944    -0.00800
loop_ 
_geom_bond_atom_site_label_1 
_geom_bond_atom_site_label_2 
_geom_bond_distance 
_geom_bond_site_symmetry_2 
_ccdc_geom_bond_type 
N1            N2   1.322       .  A
N1            C5   1.346       .  A
N1           Cu9   2.075       .  S
N2            C3   1.344       .  A
N2           Cu8   2.065       .  S
C3            C4   1.379       .  A
C3            H6   1.082       .  S
C4            C5   1.382       .  A
C4          C250   1.464       .  S
C5            H7   1.082       .  S
Cu8          N11   2.065       .  S
Cu9          N19   2.074       .  S
Cu10         N12   2.071       .  S
Cu10         N18   2.071       .  S
N11          N12   1.322       .  A
N11          C15   1.344       .  A
N12          C13   1.345       .  A
C13          C14   1.381       .  A
C13          H16   1.082       .  S
C14          C15   1.379       .  A
C14         C110   1.462       .  S
C15          H17   1.082       .  S
N18          N19   1.323       .  A
N18          C22   1.344       .  A
N19          C20   1.345       .  A
C20          C21   1.382       .  A
C20          H23   1.082       .  S
C21          C22   1.381       .  A
C21         C464   1.466       .  S
C22          H24   1.082       .  S
N25          N26   1.323       .  A
N25          C29   1.345       .  A
N25         Cu33   2.072       .  S
N26          C27   1.345       .  A
N26         Cu32   2.074       .  S
C27          C28   1.380       .  A
C27          H30   1.082       .  S
C28          C29   1.380       .  A
C28         C352   1.463       .  S
C29          H31   1.082       .  S
Cu32         N35   2.075       .  S
Cu33         N43   2.072       .  S
Cu34         N36   2.084       .  S
Cu34         N42   2.084       .  S
N35          N36   1.323       .  A
N35          C39   1.346       .  A
N36          C37   1.347       .  A
C37          C38   1.383       .  A
C37          H40   1.082       .  S
C38          C39   1.382       .  A
C38          C76   1.470       .  S
C39          H41   1.082       .  S
N42          N43   1.323       .  A
N42          C46   1.347       .  A
N43          C44   1.346       .  A
C44          C45   1.381       .  A
C44          H47   1.082       .  S
C45          C46   1.383       .  A
C45         C226   1.469       .  S
C46          H48   1.082       .  S
N49          N50   1.321       .  A
N49          C53   1.344       .  A
N49         Cu57   2.060       .  S
N50          C51   1.345       .  A
N50         Cu56   2.073       .  S
C51          C52   1.382       .  A
C51          H54   1.082       .  S
C52          C53   1.379       .  A
C52         C304   1.463       .  S
C53          H55   1.082       .  S
Cu56         N59   2.073       .  S
Cu57         N67   2.060       .  S
Cu58         N60   2.074       .  S
Cu58         N66   2.074       .  S
N59          N60   1.324       .  A
N59          C63   1.344       .  A
N60          C61   1.345       .  A
C61          C62   1.380       .  A
C61          H64   1.082       .  S
C62          C63   1.380       .  A
C62         C134   1.464       .  S
C63          H65   1.082       .  S
N66          N67   1.322       .  A
N66          C70   1.346       .  A
N67          C68   1.342       .  A
C68          C69   1.377       .  A
C68          H71   1.082       .  S
C69          C70   1.382       .  A
C69         C488   1.461       .  S
C70          H72   1.082       .  S
N73          N74   1.323       .  A
N73          C77   1.346       .  A
N73         Cu81   2.077       .  S
N74          C75   1.347       .  A
N74         Cu80   2.083       .  S
C75          C76   1.383       .  A
C75          H78   1.082       .  S
C76          C77   1.382       .  A
C77          H79   1.082       .  S
Cu80         N83   2.084       .  S
Cu81         N91   2.078       .  S
Cu82         N84   2.076       .  S
Cu82         N90   2.077       .  S
N83          N84   1.323       .  A
N83          C87   1.348       .  A
N84          C85   1.345       .  A
C85          C86   1.381       .  A
C85          H88   1.082       .  S
C86          C87   1.384       .  A
C86         C406   1.471       .  S
C87          H89   1.082       .  S
N90          N91   1.323       .  A
N90          C94   1.346   1_554  A
N91          C92   1.346       .  A
C92          C93   1.382   1_554  A
C92          H95   1.082       .  S
C93          C94   1.383       .  A
C93         C616   1.477       .  S
C94          H96   1.082       .  S
N97          N98   1.323       .  A
N97         C101   1.347   1_455  A
N97        Cu105   2.086   1_455  S
N98          C99   1.346       .  A
N98        Cu104   2.070       .  S
C99         C100   1.380       .  A
C99         H102   1.082       .  S
C100        C101   1.384   1_455  A
C100        C290   1.469       .  S
C101        H103   1.082       .  S
Cu104       N107   2.070       .  S
Cu105       N115   2.086       .  S
Cu106       N108   2.064       .  S
Cu106       N114   2.065   1_455  S
N107        N108   1.322       .  A
N107        C111   1.345       .  A
N108        C109   1.344       .  A
C109        C110   1.379       .  A
C109        H112   1.082       .  S
C110        C111   1.381       .  A
C111        H113   1.082       .  S
N114        N115   1.323       .  A
N114        C118   1.344       .  A
N115        C116   1.346       .  A
C116        C117   1.384       .  A
C116        H119   1.082       .  S
C117        C118   1.380       .  A
C117        C606   1.477       .  S
C118        H120   1.082       .  S
N121        N122   1.322       .  A
N121        C125   1.345   1_545  A
N121       Cu129   2.073   1_545  S
N122        C123   1.346       .  A
N122       Cu128   2.075       .  S
C123        C124   1.382       .  A
C123        H126   1.082       .  S
C124        C125   1.382   1_545  A
C124        C178   1.469       .  S
C125        H127   1.082       .  S
Cu128       N131   2.075       .  S
Cu129       N139   2.073       .  S
Cu130       N132   2.067       .  S
Cu130       N138   2.068   1_545  S
N131        N132   1.322       .  A
N131        C135   1.345       .  A
N132        C133   1.344       .  A
C133        C134   1.380       .  A
C133        H136   1.082       .  S
C134        C135   1.381       .  A
C135        H137   1.082       .  S
N138        N139   1.323       .  A
N138        C142   1.343       .  A
N139        C140   1.346       .  A
C140        C141   1.382       .  A
C140        H143   1.082       .  S
C141        C142   1.380       .  A
C141        C599   1.472       .  S
C142        H144   1.082       .  S
C145        N146   1.359       .  A
C145        N150   1.358       .  A
C145        C609   1.488       .  S
N146        C147   1.358       .  A
C147        N148   1.358       .  A
C147        C596   1.474       .  S
N148        C149   1.357       .  A
C149        N150   1.358       .  A
C149        C619   1.478       .  S
N151        N152   1.323       .  A
N151        C155   1.346       .  A
N151       Cu159   2.079       .  S
N152        C153   1.345       .  A
N152       Cu158   2.072       .  S
C153        C154   1.380       .  A
C153        H156   1.082       .  S
C154        C155   1.382       .  A
C154        C314   1.466       .  S
C155        H157   1.082       .  S
Cu158       N161   2.072       .  S
Cu159       N169   2.078       .  S
Cu160       N162   2.068       .  S
Cu160       N168   2.068       .  S
N161        N162   1.322       .  A
N161        C165   1.345       .  A
N162        C163   1.344       .  A
C163        C164   1.381       .  A
C163        H166   1.082       .  S
C164        C165   1.381       .  A
C164        C236   1.465       .  S
C165        H167   1.082       .  S
N168        N169   1.323       .  A
N168        C172   1.344       .  A
N169        C170   1.346       .  A
C170        C171   1.383       .  A
C170        H173   1.082       .  S
C171        C172   1.380       .  A
C171        C454   1.466       .  S
C172        H174   1.082       .  S
N175        N176   1.323   1_565  A
N175        C179   1.346       .  A
N175       Cu183   2.078       .  S
N176        C177   1.346       .  A
N176       Cu182   2.076   1_556  S
C177        C178   1.382       .  A
C177        H180   1.082       .  S
C178        C179   1.382   1_545  A
C179        H181   1.082       .  S
Cu182       N185   2.076       .  S
Cu183       N193   2.078       .  S
Cu184       N186   2.076   1_565  S
Cu184       N192   2.075       .  S
N185        N186   1.323       .  A
N185        C189   1.347       .  A
N186        C187   1.344       .  A
C187        C188   1.381       .  A
C187        H190   1.082       .  S
C188        C189   1.382       .  A
C188        C338   1.467       .  S
C189        H191   1.082       .  S
N192        N193   1.322   1_554  A
N192        C196   1.347       .  A
N193        C194   1.346       .  A
C194        C195   1.383       .  A
C194        H197   1.082       .  S
C195        C196   1.382   1_556  A
C195        C260   1.471       .  S
C196        H198   1.082       .  S
N199        N200   1.322       .  A
N199        C203   1.345       .  A
N199       Cu207   2.073       .  S
N200        C201   1.347       .  A
N200       Cu206   2.079       .  S
C201        C202   1.384       .  A
C201        H204   1.082       .  S
C202        C203   1.381       .  A
C202        C416   1.470       .  S
C203        H205   1.082       .  S
Cu206       N209   2.079       .  S
Cu207       N217   2.075       .  S
Cu208       N210   2.077       .  S
Cu208       N216   2.078       .  S
N209        N210   1.323       .  A
N209        C213   1.346       .  A
N210        C211   1.346       .  A
C211        C212   1.382       .  A
C211        H214   1.082       .  S
C212        C213   1.382       .  A
C212        C399   1.470       .  S
C213        H215   1.082       .  S
N216        N217   1.323       .  A
N216        C220   1.346       .  A
N217        C218   1.346       .  A
C218        C219   1.382       .  A
C218        H221   1.082       .  S
C219        C220   1.382       .  A
C219        C586   1.476       .  S
C220        H222   1.082       .  S
N223        N224   1.323       .  A
N223        C227   1.345       .  A
N223       Cu231   2.076       .  S
N224        C225   1.347       .  A
N224       Cu230   2.079       .  S
C225        C226   1.383       .  A
C225        H228   1.082       .  S
C226        C227   1.381       .  A
C227        H229   1.082       .  S
Cu230       N233   2.079       .  S
Cu231       N241   2.077       .  S
Cu232       N234   2.068       .  S
Cu232       N240   2.069       .  S
N233        N234   1.323       .  A
N233        C237   1.346       .  A
N234        C235   1.344       .  A
C235        C236   1.379       .  A
C235        H238   1.082       .  S
C236        C237   1.382       .  A
C237        H239   1.082       .  S
N240        N241   1.322       .  A
N240        C244   1.345       .  A
N241        C242   1.345       .  A
C242        C243   1.385       .  A
C242        H245   1.082       .  S
C243        C244   1.384       .  A
C243        C576   1.482       .  S
C244        H246   1.082       .  S
N247        N248   1.321       .  A
N247        C251   1.346       .  A
N247       Cu255   2.070       .  S
N248        C249   1.344       .  A
N248       Cu254   2.068       .  S
C249        C250   1.380       .  A
C249        H252   1.082       .  S
C250        C251   1.381       .  A
C251        H253   1.082       .  S
Cu254       N257   2.070       .  S
Cu255       N265   2.071   1_556  S
Cu256       N258   2.088   1_554  S
Cu256       N264   2.089       .  S
N257        N258   1.323       .  A
N257        C261   1.345       .  A
N258        C259   1.348   1_556  A
C259        C260   1.385   1_554  A
C259        H262   1.082       .  S
C260        C261   1.380       .  A
C261        H263   1.082       .  S
N264        N265   1.324       .  A
N264        C268   1.348       .  A
N265        C266   1.344       .  A
C266        C267   1.379       .  A
C266        H269   1.082       .  S
C267        C268   1.384       .  A
C267        C566   1.476       .  S
C268        H270   1.082       .  S
C271        N272   1.356       .  A
C271        N276   1.357       .  A
C271        C579   1.471       .  S
N272        C273   1.357       .  A
C273        N274   1.360       .  A
C273        C569   1.477       .  S
N274        C275   1.361       .  A
C275        N276   1.360       .  A
C275        C589   1.487       .  S
N277        N278   1.323       .  A
N277        C281   1.345       .  A
N277       Cu285   2.070   1_445  S
N278        C279   1.347       .  A
N278       Cu284   2.086   1_545  S
C279        C280   1.383       .  A
C279        H282   1.082       .  S
C280        C281   1.380       .  A
C280        C430   1.468       .  S
C281        H283   1.082       .  S
Cu284       N287   2.086       .  S
Cu285       N295   2.070       .  S
Cu286       N288   2.072   1_655  S
Cu286       N294   2.071       .  S
N287        N288   1.324       .  A
N287        C291   1.347       .  A
N288        C289   1.345   1_455  A
C289        C290   1.380   1_655  A
C289        H292   1.082       .  S
C290        C291   1.384       .  A
C291        H293   1.082       .  S
N294        N295   1.322       .  A
N294        C298   1.346       .  A
N295        C296   1.344       .  A
C296        C297   1.381       .  A
C296        H299   1.082       .  S
C297        C298   1.382       .  A
C297        C362   1.465       .  S
C298        H300   1.082       .  S
N301        N302   1.322       .  A
N301        C305   1.343       .  A
N301       Cu309   2.067       .  S
N302        C303   1.346       .  A
N302       Cu308   2.071       .  S
C303        C304   1.382       .  A
C303        H306   1.082       .  S
C304        C305   1.379       .  A
C305        H307   1.082       .  S
Cu308       N311   2.072       .  S
Cu309       N319   2.068       .  S
Cu310       N312   2.077       .  S
Cu310       N318   2.077       .  S
N311        N312   1.323       .  A
N311        C315   1.345       .  A
N312        C313   1.346       .  A
C313        C314   1.382       .  A
C313        H316   1.082       .  S
C314        C315   1.381       .  A
C315        H317   1.082       .  S
N318        N319   1.322       .  A
N318        C322   1.345       .  A
N319        C320   1.345       .  A
C320        C321   1.381       .  A
C320        H323   1.082       .  S
C321        C322   1.382       .  A
C321        C559   1.475       .  S
C322        H324   1.082       .  S
N325        N326   1.321       .  A
N325        C329   1.346       .  A
N325       Cu333   2.069       .  S
N326        C327   1.344       .  A
N326       Cu332   2.068       .  S
C327        C328   1.381       .  A
C327        H330   1.082       .  S
C328        C329   1.382       .  A
C328        C382   1.465       .  S
C329        H331   1.082       .  S
Cu332       N335   2.068       .  S
Cu333       N343   2.069       .  S
Cu334       N336   2.084       .  S
Cu334       N342   2.085       .  S
N335        N336   1.323       .  A
N335        C339   1.343       .  A
N336        C337   1.347       .  A
C337        C338   1.384       .  A
C337        H340   1.082       .  S
C338        C339   1.379       .  A
C339        H341   1.082       .  S
N342        N343   1.323       .  A
N342        C346   1.347       .  A
N343        C344   1.343       .  A
C344        C345   1.381       .  A
C344        H347   1.082       .  S
C345        C346   1.386       .  A
C345        C546   1.481       .  S
C346        H348   1.082       .  S
N349        N350   1.322       .  A
N349        C353   1.344       .  A
N349       Cu357   2.065       .  S
N350        C351   1.345       .  A
N350       Cu356   2.075       .  S
C351        C352   1.381       .  A
C351        H354   1.082       .  S
C352        C353   1.379       .  A
C353        H355   1.082       .  S
Cu356       N359   2.075       .  S
Cu357       N367   2.065       .  S
Cu358       N360   2.069       .  S
Cu358       N366   2.069       .  S
N359        N360   1.323       .  A
N359        C363   1.346       .  A
N360        C361   1.344       .  A
C361        C362   1.380       .  A
C361        H364   1.082       .  S
C362        C363   1.381       .  A
C363        H365   1.082       .  S
N366        N367   1.322       .  A
N366        C370   1.345   1_565  A
N367        C368   1.343       .  A
C368        C369   1.380   1_565  A
C368        H371   1.082       .  S
C369        C370   1.381       .  A
C369        C539   1.471       .  S
C370        H372   1.082       .  S
C373        N374   1.354       .  A
C373        N378   1.355       .  A
C373        C536   1.464       .  S
N374        C375   1.354       .  A
C375        N376   1.359       .  A
C375        C549   1.469       .  S
N376        C377   1.360       .  A
C377        N378   1.358       .  A
C377        C556   1.475       .  S
N379        N380   1.323       .  A
N379        C383   1.345       .  A
N379       Cu387   2.077       .  S
N380        C381   1.346       .  A
N380       Cu386   2.073       .  S
C381        C382   1.380       .  A
C381        H384   1.082       .  S
C382        C383   1.381       .  A
C383        H385   1.082       .  S
Cu386       N389   2.073       .  S
Cu387       N397   2.078       .  S
Cu388       N390   2.076       .  S
Cu388       N396   2.076       .  S
N389        N390   1.323       .  A
N389        C393   1.345       .  A
N390        C391   1.346       .  A
C391        C392   1.382       .  A
C391        H394   1.082       .  S
C392        C393   1.382       .  A
C392        C440   1.468       .  S
C393        H395   1.082       .  S
N396        N397   1.323       .  A
N396        C400   1.345       .  A
N397        C398   1.347       .  A
C398        C399   1.383       .  A
C398        H401   1.082       .  S
C399        C400   1.382       .  A
C400        H402   1.082       .  S
N403        N404   1.323       .  A
N403        C407   1.345       .  A
N403       Cu411   2.074       .  S
N404        C405   1.348       .  A
N404       Cu410   2.084       .  S
C405        C406   1.384       .  A
C405        H408   1.082       .  S
C406        C407   1.381       .  A
C407        H409   1.082       .  S
Cu410       N413   2.084   1_655  S
Cu411       N421   2.074   1_554  S
Cu412       N414   2.072   1_655  S
Cu412       N420   2.071   1_554  S
N413        N414   1.323       .  A
N413        C417   1.347       .  A
N414        C415   1.346       .  A
C415        C416   1.381       .  A
C415        H418   1.082       .  S
C416        C417   1.383       .  A
C417        H419   1.082       .  S
N420        N421   1.323       .  A
N420        C424   1.345       .  A
N421        C422   1.345       .  A
C422        C423   1.381       .  A
C422        H425   1.082       .  S
C423        C424   1.380       .  A
C423        C478   1.465       .  S
C424        H426   1.082       .  S
N427        N428   1.322       .  A
N427        C431   1.346       .  A
N427       Cu435   2.081       .  S
N428        C429   1.346       .  A
N428       Cu434   2.072       .  S
C429        C430   1.382       .  A
C429        H432   1.082       .  S
C430        C431   1.382       .  A
C431        H433   1.082       .  S
Cu434       N437   2.072       .  S
Cu435       N445   2.083       .  S
Cu436       N438   2.082       .  S
Cu436       N444   2.083       .  S
N437        N438   1.323       .  A
N437        C441   1.345       .  A
N438        C439   1.347       .  A
C439        C440   1.383       .  A
C439        H442   1.082       .  S
C440        C441   1.380       .  A
C441        H443   1.082       .  S
N444        N445   1.323       .  A
N444        C448   1.347       .  A
N445        C446   1.346       .  A
C446        C447   1.384       .  A
C446        H449   1.082       .  S
C447        C448   1.384       .  A
C447        C526   1.482       .  S
C448        H450   1.082       .  S
N451        N452   1.322       .  A
N451        C455   1.344       .  A
N451       Cu459   2.069       .  S
N452        C453   1.346       .  A
N452       Cu458   2.077       .  S
C453        C454   1.383       .  A
C453        H456   1.082       .  S
C454        C455   1.380       .  A
C455        H457   1.082       .  S
Cu458       N461   2.076       .  S
Cu459       N469   2.069       .  S
Cu460       N462   2.071       .  S
Cu460       N468   2.072       .  S
N461        N462   1.323       .  A
N461        C465   1.346       .  A
N462        C463   1.344       .  A
C463        C464   1.380       .  A
C463        H466   1.082       .  S
C464        C465   1.382       .  A
C465        H467   1.082       .  S
N468        N469   1.322       .  A
N468        C472   1.345       .  A
N469        C470   1.345       .  A
C470        C471   1.381       .  A
C470        H473   1.082       .  S
C471        C472   1.383       .  A
C471        C519   1.475       .  S
C472        H474   1.082       .  S
N475        N476   1.322       .  A
N475        C479   1.344       .  A
N475       Cu483   2.069       .  S
N476        C477   1.345       .  A
N476       Cu482   2.072       .  S
C477        C478   1.381       .  A
C477        H480   1.082       .  S
C478        C479   1.380       .  A
C479        H481   1.082       .  S
Cu482       N485   2.071       .  S
Cu483       N493   2.070       .  S
Cu484       N486   2.066       .  S
Cu484       N492   2.068       .  S
N485        N486   1.322       .  A
N485        C489   1.346       .  A
N486        C487   1.343       .  A
C487        C488   1.378       .  A
C487        H490   1.082       .  S
C488        C489   1.380       .  A
C489        H491   1.082       .  S
N492        N493   1.322       .  A
N492        C496   1.345       .  A
N493        C494   1.344   1_655  A
C494        C495   1.380       .  A
C494        H497   1.082       .  S
C495        C496   1.381   1_455  A
C495        C506   1.471       .  S
C496        H498   1.082       .  S
C499        N500   1.357       .  A
C499        N504   1.359       .  A
C499        C509   1.478       .  S
N500        C501   1.356       .  A
C501        N502   1.359       .  A
C501        C516   1.476       .  S
N502        C503   1.359       .  A
C503        N504   1.358       .  A
C503        C529   1.476       .  S
C505        C506   1.406       .  A
C505        C510   1.405       .  A
C505       Br512   1.931       .  S
C506        C507   1.407       .  A
C507        C508   1.408       .  A
C507       Br514   1.930       .  S
C508        C509   1.413       .  A
C508       Br513   1.931       .  S
C509        C510   1.414       .  A
C510       Br511   1.933       .  S
C515        C516   1.410       .  A
C515        C520   1.406       .  A
C515       Br522   1.931       .  S
C516        C517   1.411       .  A
C517        C518   1.409       .  A
C517       Br524   1.930       .  S
C518        C519   1.409       .  A
C518       Br523   1.930       .  S
C519        C520   1.409       .  A
C520       Br521   1.931       .  S
C525        C526   1.411       .  A
C525        C530   1.407       .  A
C525       Br532   1.930       .  S
C526        C527   1.411       .  A
C527        C528   1.411       .  A
C527       Br534   1.929       .  S
C528        C529   1.410       .  A
C528       Br533   1.930       .  S
C529        C530   1.408       .  A
C530       Br531   1.931       .  S
C535        C536   1.407       .  A
C535        C540   1.406       .  A
C535       Br542   1.930       .  S
C536        C537   1.406       .  A
C537        C538   1.404       .  A
C537       Br544   1.930       .  S
C538        C539   1.410       .  A
C538       Br543   1.930   1_545  S
C539        C540   1.409       .  A
C540       Br541   1.929       .  S
C545        C546   1.413       .  A
C545        C550   1.408       .  A
C545       Br552   1.930       .  S
C546        C547   1.414       .  A
C547        C548   1.407       .  A
C547       Br554   1.931       .  S
C548        C549   1.406       .  A
C548       Br553   1.931       .  S
C549        C550   1.406       .  A
C550       Br551   1.931       .  S
C555        C556   1.410       .  A
C555        C560   1.408       .  A
C555       Br562   1.930       .  S
C556        C557   1.411       .  A
C557        C558   1.407       .  A
C557       Br564   1.931       .  S
C558        C559   1.408       .  A
C558       Br563   1.930       .  S
C559        C560   1.410       .  A
C560       Br561   1.930       .  S
C565        C566   1.409       .  A
C565        C570   1.409       .  A
C565       Br572   1.929       .  S
C566        C567   1.409       .  A
C567        C568   1.408       .  A
C567       Br574   1.930       .  S
C568        C569   1.411       .  A
C568       Br573   1.931       .  S
C569        C570   1.410       .  A
C570       Br571   1.929       .  S
C575        C576   1.414       .  A
C575        C580   1.407       .  A
C575       Br582   1.931       .  S
C576        C577   1.414       .  A
C577        C578   1.408       .  A
C577       Br584   1.931       .  S
C578        C579   1.407       .  A
C578       Br583   1.931       .  S
C579        C580   1.405       .  A
C580       Br581   1.930       .  S
C585        C586   1.406       .  A
C585        C590   1.408       .  A
C585       Br592   1.931       .  S
C586        C587   1.407       .  A
C587        C588   1.410       .  A
C587       Br594   1.930       .  S
C588        C589   1.416       .  A
C588       Br593   1.932       .  S
C589        C590   1.417       .  A
C590       Br591   1.932       .  S
C595        C596   1.411       .  A
C595        C600   1.405       .  A
C595       Br602   1.932       .  S
C596        C597   1.410       .  A
C597        C598   1.408       .  A
C597       Br604   1.929       .  S
C598        C599   1.408       .  A
C598       Br603   1.929       .  S
C599        C600   1.408       .  A
C600       Br601   1.931       .  S
C605        C606   1.406       .  A
C605        C610   1.408       .  A
C605       Br612   1.932       .  S
C606        C607   1.408       .  A
C607        C608   1.409       .  A
C607       Br614   1.932       .  S
C608        C609   1.418       .  A
C608       Br613   1.934       .  S
C609        C610   1.418       .  A
C610       Br611   1.934       .  S
C615        C616   1.409       .  A
C615        C620   1.409       .  A
C615       Br622   1.930       .  S
C616        C617   1.408       .  A
C617        C618   1.407       .  A
C617       Br624   1.929       .  S
C618        C619   1.411       .  A
C618       Br623   1.932       .  S
C619        C620   1.412       .  A
C620       Br621   1.931       .  S
