geometry optimzed in LAMMPS
_audit_creation_date              2020-11-30 
_audit_creation_method            'lammps2cif' 
_symmetry_space_group_name_H-M    'P1' 
_symmetry_Int_Tables_number       1 
_symmetry_cell_setting            triclinic 
loop_ 
_symmetry_equiv_pos_as_xyz 
  x,y,z 
_cell_length_a                    38.45440095 
_cell_length_b                    45.045567967163 
_cell_length_c                    44.739821371695854 
_cell_angle_alpha                 90.0123456556917 
_cell_angle_beta                  89.99779377071356 
_cell_angle_gamma                 90.01077916610264 
loop_ 
_atom_site_label 
_atom_site_type_symbol 
_atom_site_fract_x 
_atom_site_fract_y 
_atom_site_fract_z 
_atom_site_charge 
In1        In  0.65241786  0.23385067  0.14325991     1.36900
C2          C  0.65473046  0.28231572  0.10957531     0.80200
O3          O  0.70998684  0.23005355  0.13556428    -0.58300
O4          O  0.67747305  0.19604756  0.11818637    -0.49200
C5          C  0.65998237  0.22914435  0.20217865     0.72800
O6          O  0.66066932  0.25374373  0.18882340    -0.44100
C7          C  0.58537886  0.22006394  0.13844503     0.77500
O8          O  0.66251181  0.28274024  0.13694527    -0.55900
O9          O  0.60903675  0.20307627  0.12903589    -0.46000
O10         O  0.64566749  0.25737816  0.09953664    -0.52300
C11         C  0.70780316  0.20633398  0.12081852     0.87700
O12         O  0.65615952  0.20685878  0.18550654    -0.54200
O13         O  0.59590076  0.24380175  0.15021285    -0.57500
In14       In  0.65204423  0.81809618  0.91039346     1.36900
C15         C  0.65467918  0.76955489  0.94400182     0.80200
O16         O  0.70965455  0.82275777  0.91745408    -0.58300
O17         O  0.67652154  0.85516012  0.93694096    -0.49200
C18         C  0.66024106  0.82261955  0.85155763     0.72800
O19         O  0.65955135  0.79799364  0.86485996    -0.44100
C20         C  0.58499874  0.83230420  0.91438117     0.77500
O21         O  0.66295655  0.76930805  0.91673829    -0.55900
O22         O  0.60871470  0.84966063  0.92296927    -0.46000
O23         O  0.64497213  0.79434266  0.95396097    -0.52300
C24         C  0.70708838  0.84571571  0.93333992     0.87700
O25         O  0.65731869  0.84500238  0.86822977    -0.54200
O26         O  0.59546023  0.80797549  0.90387861    -0.57500
In27       In  0.84630874  0.15795021  0.04317511     1.36900
C28         C  0.84343571  0.20056552  0.00222777     0.80200
O29         O  0.78885650  0.16275141  0.05093282    -0.58300
O30         O  0.82302845  0.17591376  0.08578820    -0.49200
C31         C  0.83811079  0.09992818  0.03552931     0.72800
O32         O  0.83600639  0.11808593  0.01420581    -0.44100
C33         C  0.91364036  0.15917490  0.05631197     0.77500
O34         O  0.83531015  0.17407094  0.99644490    -0.55900
O35         O  0.89056561  0.16357273  0.07584123    -0.46000
O36         O  0.85273005  0.20530916  0.02878674    -0.52300
C37         C  0.79212779  0.17350538  0.07673799     0.87700
O38         O  0.84404831  0.11130795  0.06071075    -0.54200
O39         O  0.90239339  0.15401512  0.03041495    -0.57500
In40       In  0.84541393  0.89468324  0.01092833     1.36900
C41         C  0.84250302  0.85215505  0.05192809     0.80200
O42         O  0.78793732  0.88967677  0.00330521    -0.58300
O43         O  0.82208085  0.87669749  0.96835933    -0.49200
C44         C  0.83740513  0.95272211  0.01859358     0.72800
O45         O  0.83602758  0.93463175  0.04001776    -0.44100
C46         C  0.91271185  0.89344994  0.99748010     0.77500
O47         O  0.83405299  0.87859385  0.05761107    -0.55900
O48         O  0.88950650  0.88893396  0.97809499    -0.46000
O49         O  0.85210072  0.84742854  0.02544986    -0.52300
C50         C  0.79119468  0.87894760  0.97748442     0.87700
O51         O  0.84245377  0.94126086  0.99330798    -0.54200
O52         O  0.90161555  0.89867736  0.02341072    -0.57500
In53       In  0.64721175  0.23346608  0.41020778     1.36900
C54         C  0.64946323  0.28204212  0.44392490     0.80200
O55         O  0.59076164  0.24295277  0.40229786    -0.58300
O56         O  0.60375597  0.20251494  0.42402336    -0.49200
C57         C  0.65647628  0.22879393  0.35146973     0.72800
O58         O  0.65568620  0.25343123  0.36475591    -0.44100
C59         C  0.70224192  0.20592958  0.43301409     0.77500
O60         O  0.65706928  0.28244001  0.41652433    -0.55900
O61         O  0.67182891  0.19585060  0.43576609    -0.46000
O62         O  0.64053775  0.25708231  0.45398334    -0.52300
C63         C  0.58016344  0.21931064  0.41418175     0.87700
O64         O  0.65303789  0.20644221  0.36811313    -0.54200
O65         O  0.70466200  0.22950103  0.41806349    -0.57500
In66       In  0.65044346  0.81847726  0.64359650     1.36900
C67         C  0.65300936  0.77001511  0.60979236     0.80200
O68         O  0.59390173  0.80879455  0.65092904    -0.58300
O69         O  0.60702980  0.84966214  0.63011407    -0.49200
C70         C  0.65943333  0.82289061  0.70234299     0.72800
O71         O  0.65844699  0.79829593  0.68899107    -0.44100
C72         C  0.70573608  0.84585965  0.62106377     0.77500
O73         O  0.66035877  0.76955113  0.63724286    -0.55900
O74         O  0.67538382  0.85603055  0.61814954    -0.46000
O75         O  0.64417440  0.79499508  0.59971805    -0.52300
C76         C  0.58336242  0.83265866  0.63947490     0.87700
O77         O  0.65634659  0.84532045  0.68576182    -0.54200
O78         O  0.70795073  0.82230267  0.63605418    -0.57500
In79       In  0.84364802  0.89458590  0.54318605     1.36900
C80         C  0.84086068  0.85210490  0.50209471     0.80200
O81         O  0.89964349  0.89958898  0.53039430    -0.58300
O82         O  0.88814376  0.88880066  0.57558285    -0.49200
C83         C  0.83409254  0.95247626  0.53579988     0.72800
O84         O  0.83238789  0.93435069  0.51441612    -0.44100
C85         C  0.78989004  0.87865190  0.57692491     0.77500
O86         O  0.83300374  0.87865072  0.49634564    -0.55900
O87         O  0.82084846  0.87648622  0.58588917    -0.46000
O88         O  0.84988134  0.84722892  0.52869318    -0.52300
C89         C  0.91107874  0.89392806  0.55612046     0.87700
O90         O  0.84037873  0.94112860  0.56093431    -0.54200
O91         O  0.78636555  0.88927449  0.55109867    -0.57500
In92       In  0.84052006  0.15754158  0.51056204     1.36900
C93         C  0.83773170  0.20012766  0.55152937     0.80200
O94         O  0.89666564  0.15318465  0.52306180    -0.58300
O95         O  0.88467199  0.16405095  0.47798279    -0.49200
C96         C  0.83208090  0.09952282  0.51810306     0.72800
O97         O  0.82959324  0.11771223  0.53937416    -0.44100
C98         C  0.78633586  0.17293289  0.47707465     0.77500
O99         O  0.83054108  0.17348854  0.55750468    -0.55900
O100        O  0.81718863  0.17500053  0.46783252    -0.46000
O101        O  0.84605306  0.20503770  0.52476999    -0.52300
C102        C  0.90782031  0.15909125  0.49729794     0.87700
O103        O  0.83846654  0.11087327  0.49298855    -0.54200
O104        O  0.78309675  0.16255768  0.50303510    -0.57500
In105      In  0.34641202  0.23431036  0.14241236     1.36900
C106        C  0.34412550  0.28274995  0.10853966     0.80200
O107        O  0.40294756  0.24368331  0.15006426    -0.58300
O108        O  0.38966304  0.20305205  0.12882834    -0.49200
C109        C  0.33708668  0.22996905  0.20116752     0.72800
O110        O  0.33825552  0.25455005  0.18780844    -0.44100
C111        C  0.29133394  0.20681955  0.11966202     0.77500
O112        O  0.33666894  0.28326175  0.13596711    -0.55900
O113        O  0.32170754  0.19664332  0.11699237    -0.46000
O114        O  0.35295220  0.25774335  0.09852704    -0.52300
C115        C  0.41337839  0.21986707  0.13842623     0.87700
O116        O  0.34018020  0.20752940  0.18459181    -0.54200
O117        O  0.28897200  0.23045776  0.13452134    -0.57500
In118      In  0.34582062  0.81931966  0.90934931     1.36900
C119        C  0.34350460  0.77084470  0.94314327     0.80200
O120        O  0.40230495  0.80974222  0.90168392    -0.58300
O121        O  0.38927769  0.85041072  0.92296361    -0.49200
C122        C  0.33682670  0.82368755  0.85062053     0.72800
O123        O  0.33743413  0.79911523  0.86402230    -0.44100
C124        C  0.29048308  0.84673624  0.93178454     0.77500
O125        O  0.33607589  0.77036942  0.91571113    -0.55900
O126        O  0.32084555  0.85686016  0.93480925    -0.46000
O127        O  0.35226477  0.79585008  0.95321617    -0.52300
C128        C  0.41289515  0.83350299  0.91333886     0.87700
O129        O  0.34031150  0.84612736  0.86714541    -0.54200
O130        O  0.28828229  0.82320954  0.91673550    -0.57500
In131      In  0.15308401  0.15832427  0.04216257     1.36900
C132        C  0.15559218  0.20096821  0.00126995     0.80200
O133        O  0.09697990  0.15322112  0.02985828    -0.58300
O134        O  0.10897580  0.16490514  0.07474229    -0.49200
C135        C  0.16198394  0.10036120  0.03469905     0.72800
O136        O  0.16386393  0.11848533  0.01333051    -0.44100
C137        C  0.20723868  0.17389204  0.07556375     0.77500
O138        O  0.16318730  0.17441062  0.99529869    -0.55900
O139        O  0.17641088  0.17567736  0.08492733    -0.46000
O140        O  0.14694842  0.20576190  0.02797532    -0.52300
C141        C  0.08583883  0.15941132  0.05556145     0.87700
O142        O  0.15594273  0.11175274  0.05986218    -0.54200
O143        O  0.21046637  0.16375752  0.04950150    -0.57500
In144      In  0.15247024  0.89535345  0.00961576     1.36900
C145        C  0.15539087  0.85301499  0.05084011     0.80200
O146        O  0.09644115  0.89997390  0.02244461    -0.58300
O147        O  0.10799711  0.88949579  0.97719240    -0.49200
C148        C  0.16162202  0.95329892  0.01698733     0.72800
O149        O  0.16377381  0.93516378  0.03832430    -0.44100
C150        C  0.20627187  0.87953123  0.97584781     0.77500
O151        O  0.16295017  0.87963400  0.05655952    -0.55900
O152        O  0.17529345  0.87691310  0.96706116    -0.46000
O153        O  0.14664840  0.84799165  0.02420030    -0.52300
C154        C  0.08503209  0.89437090  0.99669498     0.87700
O155        O  0.15514457  0.94193095  0.99188962    -0.54200
O156        O  0.20979776  0.89057294  0.00150089    -0.57500
In157      In  0.34119487  0.23437910  0.40940116     1.36900
C158        C  0.33857039  0.28293932  0.44299940     0.80200
O159        O  0.28354711  0.23015449  0.41643154    -0.58300
O160        O  0.31625021  0.19706570  0.43525379    -0.49200
C161        C  0.33370461  0.22982057  0.35046541     0.72800
O162        O  0.33354793  0.25441000  0.36385503    -0.44100
C163        C  0.40815826  0.22024942  0.41412826     0.77500
O164        O  0.33088070  0.28326717  0.41561193    -0.55900
O165        O  0.38436365  0.20306993  0.42290539    -0.46000
O166        O  0.34772433  0.25805697  0.45309585    -0.52300
C167        C  0.28581984  0.20690418  0.43189830     0.87700
O168        O  0.33699300  0.20745762  0.36710878    -0.54200
O169        O  0.39781405  0.24435317  0.40304105    -0.57500
In170      In  0.34393674  0.81869449  0.64262520     1.36900
C171        C  0.34144173  0.77025995  0.60888370     0.80200
O172        O  0.28642419  0.82295973  0.63490536    -0.58300
O173        O  0.31941811  0.85629668  0.61689006    -0.49200
C174        C  0.33549789  0.82330913  0.70142058     0.72800
O175        O  0.33551195  0.79869633  0.68807084    -0.44100
C176        C  0.41114076  0.83236365  0.63860768     0.77500
O177        O  0.33333037  0.76989181  0.63618271    -0.55900
O178        O  0.38764745  0.84960152  0.62936185    -0.46000
O179        O  0.35092707  0.79512106  0.59895132    -0.52300
C180        C  0.28893677  0.84639907  0.61975808     0.87700
O181        O  0.33916037  0.84565077  0.68480649    -0.54200
O182        O  0.40037301  0.80844748  0.64981982    -0.57500
In183      In  0.14748138  0.15818553  0.50952965     1.36900
C184        C  0.15042626  0.20076435  0.55053469     0.80200
O185        O  0.20486954  0.16349227  0.50185074    -0.58300
O186        O  0.17063008  0.17599822  0.46680320    -0.49200
C187        C  0.15598229  0.10017375  0.51702606     0.72800
O188        O  0.15748410  0.11825521  0.53845829    -0.44100
C189        C  0.08009953  0.15934633  0.49650934     0.77500
O190        O  0.15902608  0.17434962  0.55616103    -0.55900
O191        O  0.10312236  0.16395002  0.47698168    -0.46000
O192        O  0.14063502  0.20544868  0.52409916    -0.52300
C193        C  0.20153347  0.17397039  0.47594310     0.87700
O194        O  0.15042629  0.11161714  0.49181636    -0.54200
O195        O  0.09142578  0.15398472  0.52233707    -0.57500
In196      In  0.15067844  0.89495355  0.54194623     1.36900
C197        C  0.15380073  0.85239951  0.50096549     0.80200
O198        O  0.20816227  0.89034329  0.54974869    -0.58300
O199        O  0.17397752  0.87694347  0.58450042    -0.49200
C200        C  0.15831138  0.95301455  0.53418594     0.72800
O201        O  0.16016356  0.93485731  0.51283949    -0.44100
C202        C  0.08338315  0.89352993  0.55533912     0.77500
O203        O  0.16203064  0.87888234  0.49524786    -0.55900
O204        O  0.10659049  0.88935701  0.57479571    -0.46000
O205        O  0.14434124  0.84764051  0.52747399    -0.52300
C206        C  0.20488208  0.87946825  0.57549987     0.87700
O207        O  0.15302053  0.94160973  0.55945605    -0.54200
O208        O  0.09447385  0.89847487  0.52935154    -0.57500
In209      In  0.14738675  0.31875753  0.64263735     1.36900
C210        C  0.14959715  0.27040412  0.60860502     0.80200
O211        O  0.09096010  0.30930428  0.65093626    -0.58300
O212        O  0.10375099  0.34959018  0.62886248    -0.49200
C213        C  0.15712222  0.32310566  0.70133338     0.72800
O214        O  0.15587968  0.29852064  0.68797331    -0.44100
C215        C  0.20240433  0.34638104  0.61984440     0.77500
O216        O  0.15728608  0.26984249  0.63598618    -0.55900
O217        O  0.17206027  0.35674250  0.61762461    -0.46000
O218        O  0.14058537  0.29541284  0.59872950    -0.52300
C219        C  0.08023389  0.33284625  0.63894584     0.87700
O220        O  0.15387793  0.34554651  0.68478827    -0.54200
O221        O  0.20476605  0.32248850  0.63427529    -0.57500
In222      In  0.15014049  0.73405148  0.40949835     1.36900
C223        C  0.15260517  0.78258278  0.44321138     0.80200
O224        O  0.09356719  0.74349099  0.40212469    -0.58300
O225        O  0.10691301  0.70269893  0.42299194    -0.49200
C226        C  0.15899399  0.72984289  0.35069589     0.72800
O227        O  0.15802575  0.75438106  0.36414924    -0.44100
C228        C  0.20539703  0.70671197  0.43218108     0.77500
O229        O  0.16021987  0.78295470  0.41581779    -0.55900
O230        O  0.17502223  0.69661287  0.43516790    -0.46000
O231        O  0.14349495  0.75766945  0.45327144    -0.52300
C232        C  0.08316407  0.71958678  0.41359563     0.87700
O233        O  0.15598719  0.70734947  0.36720844    -0.54200
O234        O  0.20766031  0.73015663  0.41702025    -0.57500
In235      In  0.34032270  0.39513611  0.54190269     1.36900
C236        C  0.33749006  0.35265770  0.50083132     0.80200
O237        O  0.39636721  0.40004828  0.52921630    -0.58300
O238        O  0.38474293  0.38848447  0.57418924    -0.49200
C239        C  0.33161773  0.45314124  0.53455982     0.72800
O240        O  0.32963004  0.43505045  0.51316487    -0.44100
C241        C  0.28634577  0.37948626  0.57556852     0.77500
O242        O  0.32962633  0.37920127  0.49506409    -0.55900
O243        O  0.31724391  0.37764967  0.58475439    -0.46000
O244        O  0.34647382  0.34778837  0.52743760    -0.52300
C245        C  0.40773410  0.39386646  0.55484395     0.87700
O246        O  0.33763980  0.44169680  0.55969712    -0.54200
O247        O  0.28296477  0.38972212  0.54956552    -0.57500
In248      In  0.34344953  0.65807894  0.50996193     1.36900
C249        C  0.34073002  0.70059734  0.55098910     0.80200
O250        O  0.39945167  0.65295365  0.52271295    -0.58300
O251        O  0.38795992  0.66409736  0.47761300    -0.49200
C252        C  0.33377218  0.60019880  0.51725657     0.72800
O253        O  0.33194970  0.61830517  0.53865162    -0.44100
C254        C  0.28956874  0.67396369  0.47634972     0.77500
O255        O  0.33314112  0.67401560  0.55684794    -0.55900
O256        O  0.32049597  0.67607730  0.46728490    -0.46000
O257        O  0.34948272  0.70547985  0.52432663    -0.52300
C258        C  0.41089527  0.65882847  0.49703515     0.87700
O259        O  0.34027460  0.61155915  0.49216560    -0.54200
O260        O  0.28613231  0.66339613  0.50220926    -0.57500
In261      In  0.15251883  0.31895261  0.90945102     1.36900
C262        C  0.15485080  0.27065224  0.94339050     0.80200
O263        O  0.21011537  0.32307521  0.91688444    -0.58300
O264        O  0.17739900  0.35658737  0.93492567    -0.49200
C265        C  0.16047480  0.32332610  0.85057178     0.72800
O266        O  0.16083447  0.29878641  0.86404691    -0.44100
C267        C  0.08539245  0.33277687  0.91366377     0.77500
O268        O  0.16275140  0.27012200  0.91604827    -0.55900
O269        O  0.10898451  0.34997235  0.92282901    -0.46000
O270        O  0.14566041  0.29561385  0.95327757    -0.52300
C271        C  0.20781267  0.34656878  0.93198063     0.87700
O272        O  0.15675260  0.34572613  0.86710731    -0.54200
O273        O  0.09602265  0.30880965  0.90246019    -0.57500
In274      In  0.15213028  0.73492004  0.14247660     1.36900
C275        C  0.15456423  0.78347804  0.10887490     0.80200
O276        O  0.20970771  0.73079143  0.13486249    -0.58300
O277        O  0.17683980  0.69753105  0.11654452    -0.49200
C278        C  0.16019446  0.73044120  0.20137830     0.72800
O279        O  0.15963125  0.75504292  0.18803240    -0.44100
C280        C  0.08513383  0.72063714  0.13810087     0.77500
O281        O  0.16279456  0.78375493  0.13614836    -0.55900
O282        O  0.10891119  0.70350344  0.12920633    -0.46000
O283        O  0.14496706  0.75865841  0.09891079    -0.52300
C284        C  0.20729273  0.70744146  0.11954969     0.87700
O285        O  0.15726745  0.70805070  0.18471584    -0.54200
O286        O  0.09551221  0.74476259  0.14913262    -0.57500
In287      In  0.34567100  0.65853024  0.04198174     1.36900
C288        C  0.34282822  0.70101923  0.00090511     0.80200
O289        O  0.28820061  0.66368995  0.04950157    -0.58300
O290        O  0.32229565  0.67636749  0.08459687    -0.49200
C291        C  0.33752727  0.60046370  0.03460339     0.72800
O292        O  0.33581309  0.61848846  0.01313981    -0.44100
C293        C  0.41295548  0.65970741  0.05538807     0.77500
O294        O  0.33469396  0.67451314  0.99518296    -0.55900
O295        O  0.38978334  0.66460453  0.07470639    -0.46000
O296        O  0.35216470  0.70581709  0.02744019    -0.52300
C297        C  0.29142799  0.67427423  0.07538636     0.87700
O298        O  0.34296825  0.61200560  0.05979192    -0.54200
O299        O  0.40183647  0.65417781  0.02952686    -0.57500
In300      In  0.34603570  0.39523789  0.00989090     1.36900
C301        C  0.34309197  0.35255537  0.05073542     0.80200
O302        O  0.28861906  0.39023881  0.00202323    -0.58300
O303        O  0.32292909  0.37728948  0.96718937    -0.49200
C304        C  0.33780221  0.45324777  0.01765680     0.72800
O305        O  0.33587104  0.43505659  0.03896284    -0.44100
C306        C  0.41345983  0.39403300  0.99702166     0.77500
O307        O  0.33470773  0.37899136  0.05651558    -0.55900
O308        O  0.39048720  0.38979999  0.97736321    -0.46000
O309        O  0.35262074  0.34790099  0.02422200    -0.52300
C310        C  0.29199474  0.37955264  0.97619843     0.87700
O311        O  0.34355813  0.44190670  0.99242623    -0.54200
O312        O  0.40206270  0.39904432  0.02289798    -0.57500
In313      In  0.84618253  0.31861638  0.91022614     1.36900
C314        C  0.84413440  0.27025706  0.94424855     0.80200
O315        O  0.90265797  0.30928033  0.90209819    -0.58300
O316        O  0.88962923  0.34986149  0.92351723    -0.49200
C317        C  0.83628410  0.32285416  0.85154555     0.72800
O318        O  0.83765430  0.29829462  0.86493125    -0.44100
C319        C  0.79117100  0.34608773  0.93313308     0.77500
O320        O  0.83665474  0.26964096  0.91682769    -0.55900
O321        O  0.82155081  0.35630198  0.93568224    -0.46000
O322        O  0.85285760  0.29532602  0.95417683    -0.52300
C323        C  0.91324004  0.33307212  0.91368980     0.87700
O324        O  0.83947295  0.34533089  0.86806140    -0.54200
O325        O  0.78877308  0.32241971  0.91832321    -0.57500
In326      In  0.84605215  0.73386429  0.14340301     1.36900
C327        C  0.84365695  0.78236512  0.10968286     0.80200
O328        O  0.90258659  0.74330386  0.15104681    -0.58300
O329        O  0.88940940  0.70293370  0.12925802    -0.49200
C330        C  0.83721948  0.72948519  0.20219070     0.72800
O331        O  0.83778880  0.75405445  0.18878457    -0.44100
C332        C  0.79069969  0.70644382  0.12094094     0.77500
O333        O  0.83617774  0.78279059  0.13710569    -0.55900
O334        O  0.82099341  0.69606669  0.11836420    -0.46000
O335        O  0.85257476  0.75740952  0.09959551    -0.52300
C336        C  0.91309090  0.71968823  0.13904203     0.87700
O337        O  0.84064656  0.70705774  0.18564276    -0.54200
O338        O  0.78855684  0.73022511  0.13558169    -0.57500
In339      In  0.65315550  0.39471773  0.01094595     1.36900
C340        C  0.65562159  0.35208945  0.05183968     0.80200
O341        O  0.59712815  0.39988290  0.02351976    -0.58300
O342        O  0.60881893  0.38831523  0.97854626    -0.49200
C343        C  0.66217998  0.45266456  0.01838902     0.72800
O344        O  0.66418077  0.43453218  0.03974287    -0.44100
C345        C  0.70718500  0.37903996  0.97740556     0.77500
O346        O  0.66352009  0.37859847  0.05775029    -0.55900
O347        O  0.67631104  0.37718341  0.96816355    -0.46000
O348        O  0.64673446  0.34733167  0.02518699    -0.52300
C349        C  0.58580772  0.39377604  0.99785299     0.87700
O350        O  0.65596469  0.44128678  0.99324905    -0.54200
O351        O  0.71051604  0.38928972  0.00341137    -0.57500
In352      In  0.65260233  0.65768928  0.04324988     1.36900
C353        C  0.65545844  0.70000038  0.00200382     0.80200
O354        O  0.59657513  0.65291074  0.03053565    -0.58300
O355        O  0.60819726  0.66373950  0.07569546    -0.49200
C356        C  0.66172001  0.59973648  0.03595197     0.72800
O357        O  0.66373638  0.61783103  0.01457032    -0.44100
C358        C  0.70649564  0.67355494  0.07689072     0.77500
O359        O  0.66293120  0.67336836  0.99627159    -0.55900
O360        O  0.67554926  0.67597878  0.08581788    -0.46000
O361        O  0.64679915  0.70504429  0.02866019    -0.52300
C362        C  0.58521082  0.65867372  0.05626187     0.87700
O363        O  0.65539876  0.61114917  0.06105755    -0.54200
O364        O  0.70994839  0.66267096  0.05115988    -0.57500
In365      In  0.84089947  0.31811900  0.64341945     1.36900
C366        C  0.83855929  0.26975241  0.60952288     0.80200
O367        O  0.78331696  0.32203966  0.63577874    -0.58300
O368        O  0.81594581  0.35578620  0.61806107    -0.49200
C369        C  0.83285356  0.32258754  0.70230257     0.72800
O370        O  0.83289940  0.29800364  0.68889501    -0.44100
C371        C  0.90801293  0.33206266  0.63907637     0.77500
O372        O  0.83060619  0.26926858  0.63685506    -0.55900
O373        O  0.88437277  0.34909393  0.62971833    -0.46000
O374        O  0.84783485  0.29468878  0.59963810    -0.52300
C375        C  0.78556997  0.34562040  0.62082246     0.87700
O376        O  0.83622248  0.34497390  0.68570002    -0.54200
O377        O  0.89743666  0.30822194  0.65058176    -0.57500
In378      In  0.84410882  0.73403061  0.41036792     1.36900
C379        C  0.84165179  0.78251023  0.44408727     0.80200
O380        O  0.78656814  0.72974874  0.41798652    -0.58300
O381        O  0.81955323  0.69663745  0.43639825    -0.49200
C382        C  0.83597151  0.72954948  0.35148319     0.72800
O383        O  0.83655579  0.75415174  0.36484079    -0.44100
C384        C  0.91114493  0.71994849  0.41450426     0.77500
O385        O  0.83305485  0.78276582  0.41689626    -0.55900
O386        O  0.88746761  0.70269850  0.42338357    -0.46000
O387        O  0.85161945  0.75774887  0.45391144    -0.52300
C388        C  0.78906389  0.70644676  0.43334963     0.87700
O389        O  0.83892422  0.70715457  0.36812673    -0.54200
O390        O  0.90064415  0.74408993  0.40360722    -0.57500
In391      In  0.65058606  0.65776426  0.51088718     1.36900
C392        C  0.65383928  0.70025053  0.55194612     0.80200
O393        O  0.70809453  0.66232254  0.50315691    -0.58300
O394        O  0.67400256  0.67584801  0.46839549    -0.49200
C395        C  0.65825811  0.59968564  0.51847173     0.72800
O396        O  0.66028784  0.61779614  0.53984791    -0.44100
C397        C  0.58325282  0.65930260  0.49758060     0.77500
O398        O  0.66172020  0.67369521  0.55767692    -0.55900
O399        O  0.60643613  0.66350110  0.47810270    -0.46000
O400        O  0.64460951  0.70510580  0.52539549    -0.52300
C401        C  0.70488665  0.67328839  0.47743950     0.87700
O402        O  0.65273178  0.61114315  0.49326312    -0.54200
O403        O  0.59438775  0.65426551  0.52353448    -0.57500
In404      In  0.64758753  0.39450384  0.54268485     1.36900
C405        C  0.65038421  0.35189435  0.50171461     0.80200
O406        O  0.70495455  0.38920125  0.55061736    -0.58300
O407        O  0.67050720  0.37641116  0.58540303    -0.49200
C408        C  0.65629342  0.45248941  0.53517322     0.72800
O409        O  0.65793155  0.43439008  0.51376116    -0.44100
C410        C  0.58013707  0.39365615  0.55551143     0.77500
O411        O  0.65924663  0.37825302  0.49610249    -0.55900
O412        O  0.60306406  0.38918424  0.57515329    -0.46000
O413        O  0.64041638  0.34728404  0.52811587    -0.52300
C414        C  0.70147407  0.37855607  0.57644321     0.87700
O415        O  0.65051987  0.44107200  0.56035891    -0.54200
O416        O  0.59159385  0.39872703  0.52966434    -0.57500
C417        C  0.66018367  0.48390660  0.53120796    -0.15900
C418        C  0.66207180  0.51046480  0.52840938     0.08100
C419        C  0.66253010  0.54163441  0.52536344     0.10000
C420        C  0.66139022  0.56821764  0.52251257    -0.16800
C421        C  0.73432701  0.68302289  0.46020641    -0.10700
C422        C  0.75936237  0.69276303  0.44719981    -0.12300
C423        C  0.75575826  0.35918272  0.60701539    -0.10700
C424        C  0.73073300  0.36881162  0.59390670    -0.12300
C425        C  0.66600296  0.48408732  0.02242740    -0.15900
C426        C  0.66758455  0.51063697  0.02549180     0.08100
C427        C  0.66745821  0.54177935  0.02891884     0.10000
C428        C  0.66568611  0.56832074  0.03197277    -0.16800
C429        C  0.83367006  0.72732184  0.23408731    -0.15900
C430        C  0.83210187  0.72636435  0.26101009     0.08100
C431        C  0.83182987  0.72634740  0.29260643     0.10000
C432        C  0.83293521  0.72731293  0.31954751    -0.16800
C433        C  0.76084971  0.69287701  0.10728578    -0.10700
C434        C  0.73577409  0.68326254  0.09428078    -0.12300
C435        C  0.83213099  0.32496644  0.81969711    -0.15900
C436        C  0.83007324  0.32587080  0.79279587     0.08100
C437        C  0.82928373  0.32581396  0.76120460     0.10000
C438        C  0.83004459  0.32480973  0.73425550    -0.16800
C439        C  0.76148924  0.35972391  0.94696518    -0.10700
C440        C  0.73648899  0.36937643  0.96003686    -0.12300
C441        C  0.45007469  0.39308678  0.99080721    -0.15900
C442        C  0.48131021  0.39261594  0.98840500     0.08100
C443        C  0.51804009  0.39256882  0.98867874     0.10000
C444        C  0.54923399  0.39295059  0.99145862    -0.16800
C445        C  0.44948425  0.66041180  0.06198666    -0.15900
C446        C  0.48067292  0.66056155  0.06482374     0.08100
C447        C  0.51739810  0.66023110  0.06504156     0.10000
C448        C  0.54861793  0.65961814  0.06254782    -0.16800
C449        C  0.33413742  0.56899467  0.03067701    -0.15900
C450        C  0.33271743  0.54241448  0.02785132     0.08100
C451        C  0.33277026  0.51124461  0.02472841     0.10000
C452        C  0.33429097  0.48468020  0.02179573    -0.16800
C453        C  0.04873451  0.71358930  0.13589800    -0.15900
C454        C  0.01754981  0.71049902  0.13513709     0.08100
C455        C  0.98075083  0.71021109  0.13542069     0.10000
C456        C  0.94953173  0.71289087  0.13658349    -0.16800
C457        C  0.26203512  0.68406861  0.09264797    -0.10700
C458        C  0.23702536  0.69381145  0.10569080    -0.12300
C459        C  0.04892294  0.33959023  0.91578802    -0.15900
C460        C  0.01772231  0.34256103  0.91660057     0.08100
C461        C  0.98091639  0.34276671  0.91654038     0.10000
C462        C  0.94968980  0.34000891  0.91568433    -0.16800
C463        C  0.26266539  0.36984874  0.95879986    -0.10700
C464        C  0.23761906  0.36019092  0.94573860    -0.12300
C465        C  0.54669598  0.66020337  0.49105912    -0.15900
C466        C  0.51548584  0.66048421  0.48833056     0.08100
C467        C  0.47874254  0.66025052  0.48823430     0.10000
C468        C  0.44751653  0.65969359  0.49078123    -0.16800
C469        C  0.54350760  0.39286770  0.56171247    -0.15900
C470        C  0.51226785  0.39247091  0.56413042     0.08100
C471        C  0.47553163  0.39247025  0.56389308     0.10000
C472        C  0.44432854  0.39290914  0.56116106    -0.16800
C473        C  0.32801584  0.48458673  0.53056359    -0.15900
C474        C  0.32669313  0.51114923  0.52753662     0.08100
C475        C  0.32721226  0.54229427  0.52417789     0.10000
C476        C  0.32936854  0.56882145  0.52119199    -0.16800
C477        C  0.04675874  0.71262073  0.41590567    -0.15900
C478        C  0.01555396  0.70982409  0.41700724     0.08100
C479        C  0.97876195  0.71000273  0.41729382     0.10000
C480        C  0.94756997  0.71300738  0.41658955    -0.16800
C481        C  0.16318544  0.72819128  0.23331745    -0.15900
C482        C  0.16427797  0.72713558  0.26025699     0.08100
C483        C  0.16403174  0.72698021  0.29185501     0.10000
C484        C  0.16250601  0.72778943  0.31878659    -0.16800
C485        C  0.23522043  0.69321429  0.44592688    -0.10700
C486        C  0.26029346  0.68364591  0.45895667    -0.12300
C487        C  0.94447590  0.33889934  0.63680925    -0.15900
C488        C  0.97567518  0.34189704  0.63589136     0.08100
C489        C  0.01248865  0.34218529  0.63590276     0.10000
C490        C  0.04373324  0.33956299  0.63680604    -0.16800
C491        C  0.16323841  0.32547480  0.81861781    -0.15900
C492        C  0.16399068  0.32637877  0.79166813     0.08100
C493        C  0.16322357  0.32629560  0.76008082     0.10000
C494        C  0.16120568  0.32528860  0.73318227    -0.16800
C495        C  0.23207910  0.36009933  0.60605079    -0.10700
C496        C  0.25706933  0.36979654  0.59298100    -0.12300
C497        C  0.15468368  0.82920074  0.47896064    -0.10700
C498        C  0.15419219  0.80852316  0.46183096    -0.12300
C499        C  0.15098663  0.24456863  0.58979906    -0.10700
C500        C  0.15133857  0.22396436  0.57256165    -0.12300
C501        C  0.15982233  0.06875354  0.52100405    -0.15900
C502        C  0.16176082  0.04220739  0.52388980     0.08100
C503        C  0.16235455  0.01105284  0.52707920     0.10000
C504        C  0.16134126  0.98447781  0.53004388    -0.16800
C505        C  0.34006095  0.74436907  0.59021212    -0.10700
C506        C  0.33979871  0.72376647  0.57300285    -0.12300
C507        C  0.25926940  0.86010775  0.60590012    -0.10700
C508        C  0.23426775  0.86980638  0.59282720    -0.12300
C509        C  0.33706407  0.30888793  0.46159427    -0.10700
C510        C  0.33665677  0.32951369  0.47877981    -0.12300
C511        C  0.23087274  0.18369259  0.45859128    -0.10700
C512        C  0.25595458  0.19334099  0.44559032    -0.12300
C513        C  0.15598101  0.80940186  0.09024438    -0.10700
C514        C  0.15629930  0.82996008  0.07298062    -0.12300
C515        C  0.15642183  0.22420669  0.97933334    -0.10700
C516        C  0.15614857  0.24481993  0.96214296    -0.12300
C517        C  0.16558628  0.98471118  0.02101079    -0.15900
C518        C  0.16731682  0.01125138  0.02410411     0.08100
C519        C  0.16737953  0.04239001  0.02757135     0.10000
C520        C  0.16577368  0.06893662  0.03065547    -0.16800
C521        C  0.34215279  0.74490421  0.96177869    -0.10700
C522        C  0.34186510  0.72421857  0.97890072    -0.12300
C523        C  0.33235556  0.82560743  0.73332730    -0.15900
C524        C  0.33122897  0.82665450  0.76025510     0.08100
C525        C  0.33153830  0.82673781  0.79183517     0.10000
C526        C  0.33317443  0.82583636  0.81874758    -0.16800
C527        C  0.23551673  0.86986207  0.95840390    -0.10700
C528        C  0.26060647  0.86028069  0.94540277    -0.12300
C529        C  0.34225513  0.32929924  0.07268275    -0.10700
C530        C  0.34268041  0.30863927  0.08983485    -0.12300
C531        C  0.33116125  0.22758423  0.31849645    -0.15900
C532        C  0.33051744  0.22666691  0.29154081     0.08100
C533        C  0.33129506  0.22676662  0.25994727     0.10000
C534        C  0.33321633  0.22778639  0.23304067    -0.16800
C535        C  0.26162198  0.19317620  0.10589775    -0.10700
C536        C  0.23659715  0.18352266  0.09286906    -0.12300
C537        C  0.94436023  0.16019194  0.49080263    -0.15900
C538        C  0.97554704  0.16071721  0.48798737     0.08100
C539        C  0.01227656  0.16074231  0.48774049     0.10000
C540        C  0.04350521  0.16028821  0.49020830    -0.16800
C541        C  0.83687909  0.22332271  0.57352988    -0.10700
C542        C  0.83719850  0.24391010  0.59076532    -0.12300
C543        C  0.94769120  0.89314893  0.56238351    -0.15900
C544        C  0.97891635  0.89265057  0.56490178     0.08100
C545        C  0.01565112  0.89244110  0.56473083     0.10000
C546        C  0.04684781  0.89269777  0.56192630    -0.16800
C547        C  0.83994604  0.82897396  0.48002620    -0.10700
C548        C  0.84024138  0.80840091  0.46277270    -0.12300
C549        C  0.82981357  0.98385811  0.53180319    -0.15900
C550        C  0.82775764  0.01038430  0.52875034     0.08100
C551        C  0.82729767  0.04152206  0.52530839     0.10000
C552        C  0.82859380  0.06807896  0.52220628    -0.16800
C553        C  0.65451961  0.74409149  0.59113413    -0.10700
C554        C  0.65487275  0.72342924  0.57397694    -0.12300
C555        C  0.54690164  0.83946064  0.63716002    -0.15900
C556        C  0.51567533  0.84215986  0.63608419     0.08100
C557        C  0.47886556  0.84197418  0.63584011     0.10000
C558        C  0.44764867  0.83907401  0.63655675    -0.16800
C559        C  0.76066710  0.86896846  0.59438141    -0.10700
C560        C  0.73558833  0.85939380  0.60740027    -0.12300
C561        C  0.65085198  0.30799549  0.46256384    -0.10700
C562        C  0.65122878  0.32866543  0.47971894    -0.12300
C563        C  0.54371595  0.21252618  0.41645014    -0.15900
C564        C  0.51249423  0.20986704  0.41743277     0.08100
C565        C  0.47570834  0.21017992  0.41747808     0.10000
C566        C  0.44454036  0.21326532  0.41652218    -0.16800
C567        C  0.73193958  0.19224833  0.44676998    -0.10700
C568        C  0.75696443  0.18256082  0.45977570    -0.12300
C569        C  0.94925202  0.89265366  0.99088929    -0.15900
C570        C  0.98045378  0.89243747  0.98810103     0.08100
C571        C  0.01719223  0.89274796  0.98794143     0.10000
C572        C  0.04841764  0.89338820  0.99045042    -0.16800
C573        C  0.84213173  0.80829498  0.09105987    -0.10700
C574        C  0.84166402  0.82896406  0.07393031    -0.12300
C575        C  0.95020649  0.16010921  0.06268994    -0.15900
C576        C  0.98142281  0.16058453  0.06520629     0.08100
C577        C  0.01814122  0.16065170  0.06497431     0.10000
C578        C  0.04931972  0.16027434  0.06212788    -0.16800
C579        C  0.84253190  0.22379051  0.98024032    -0.10700
C580        C  0.84283701  0.24441211  0.96303387    -0.12300
C581        C  0.83455342  0.06849174  0.03146674    -0.15900
C582        C  0.83294086  0.04192518  0.02860059     0.08100
C583        C  0.83275762  0.01075444  0.02551580     0.10000
C584        C  0.83408703  0.98417654  0.02265388    -0.16800
C585        C  0.65639866  0.72305407  0.97986586    -0.10700
C586        C  0.65611619  0.74362364  0.96261733    -0.12300
C587        C  0.54857913  0.83934510  0.91634329    -0.15900
C588        C  0.51739766  0.84248616  0.91698831     0.08100
C589        C  0.48059753  0.84287647  0.91669203     0.10000
C590        C  0.44936305  0.84027519  0.91561377    -0.16800
C591        C  0.66340090  0.82490727  0.81964940    -0.15900
C592        C  0.66465280  0.82595376  0.79272461     0.08100
C593        C  0.66453498  0.82601822  0.76114094     0.10000
C594        C  0.66302545  0.82508211  0.73422225    -0.16800
C595        C  0.73680252  0.85939957  0.94717482    -0.10700
C596        C  0.76181054  0.86915989  0.96020858    -0.12300
C597        C  0.65605113  0.30822528  0.09094006    -0.10700
C598        C  0.65638137  0.32886299  0.07378404    -0.12300
C599        C  0.44977818  0.21291482  0.13615646    -0.15900
C600        C  0.48098108  0.21012743  0.13514611     0.08100
C601        C  0.51776648  0.21030507  0.13505833     0.10000
C602        C  0.54895190  0.21326441  0.13600317    -0.16800
C603        C  0.66250157  0.22680438  0.23414356    -0.15900
C604        C  0.66309419  0.22569364  0.26109378     0.08100
C605        C  0.66225989  0.22555705  0.29268881     0.10000
C606        C  0.66032089  0.22648981  0.31959930    -0.16800
C607        C  0.73763804  0.19274342  0.10709796    -0.10700
C608        C  0.76272428  0.18313084  0.09407262    -0.12300
loop_ 
_geom_bond_atom_site_label_1 
_geom_bond_atom_site_label_2 
_geom_bond_distance 
_geom_bond_site_symmetry_2 
_ccdc_geom_bond_type 
In1           O3   2.247       .  S
In1           O4   2.255       .  S
In1          O12   2.252       .  S
In1           O6   2.249       .  S
In1           O8   2.254       .  S
In1           O9   2.260       .  S
In1          O10   2.240       .  S
In1          O13   2.241       .  S
C2            O8   1.261       .  A
C2           O10   1.259       .  A
C2          C597   1.435       .  S
O3           C11   1.258       .  A
O4           C11   1.260       .  A
C5           O12   1.259       .  A
C5            O6   1.259       .  A
C5          C603   1.437       .  S
C7            O9   1.261       .  A
C7           O13   1.259       .  A
C7          C602   1.438       .  S
C11         C607   1.438       .  S
In14         O16   2.248       .  S
In14         O17   2.254       .  S
In14         O25   2.252       .  S
In14         O19   2.248       .  S
In14         O21   2.255       .  S
In14         O22   2.262       .  S
In14         O23   2.240       .  S
In14         O26   2.242       .  S
C15          O21   1.261       .  A
C15          O23   1.259       .  A
C15         C586   1.436       .  S
O16          C24   1.259       .  A
O17          C24   1.260       .  A
C18          O25   1.259       .  A
C18          O19   1.259       .  A
C18         C591   1.436       .  S
C20          O22   1.261       .  A
C20          O26   1.258       .  A
C20         C587   1.439       .  S
C24         C595   1.438       .  S
In27         O29   2.247       .  S
In27         O30   2.256       .  S
In27         O38   2.245       .  S
In27         O32   2.249       .  S
In27         O34   2.253   1_554  S
In27         O35   2.257       .  S
In27         O36   2.242       .  S
In27         O39   2.238       .  S
C28          O34   1.260   1_554  A
C28          O36   1.259       .  A
C28         C579   1.437   1_554  S
O29          C37   1.258       .  A
O30          C37   1.260       .  A
C31          O38   1.259       .  A
C31          O32   1.259       .  A
C31         C581   1.434       .  S
C33          O35   1.261       .  A
C33          O39   1.258       .  A
C33         C575   1.435       .  S
C37         C608   1.438       .  S
In40         O42   2.248       .  S
In40         O43   2.256   1_554  S
In40         O51   2.244   1_554  S
In40         O45   2.250       .  S
In40         O47   2.254       .  S
In40         O48   2.258   1_554  S
In40         O49   2.241       .  S
In40         O52   2.239       .  S
C41          O47   1.260       .  A
C41          O49   1.259       .  A
C41         C574   1.436       .  S
O42          C50   1.258   1_554  A
O43          C50   1.260       .  A
C44          O51   1.258   1_554  A
C44          O45   1.259       .  A
C44         C584   1.434       .  S
C46          O48   1.261       .  A
C46          O52   1.258   1_556  A
C46         C569   1.436       .  S
C50         C596   1.438       .  S
In53         O55   2.241       .  S
In53         O56   2.262       .  S
In53         O64   2.253       .  S
In53         O58   2.247       .  S
In53         O60   2.256       .  S
In53         O61   2.253       .  S
In53         O62   2.243       .  S
In53         O65   2.244       .  S
C54          O60   1.260       .  A
C54          O62   1.259       .  A
C54         C561   1.437       .  S
O55          C63   1.258       .  A
O56          C63   1.261       .  A
C57          O64   1.259       .  A
C57          O58   1.259       .  A
C57         C606   1.437       .  S
C59          O61   1.261       .  A
C59          O65   1.258       .  A
C59         C567   1.436       .  S
C63         C563   1.438       .  S
In66         O68   2.242       .  S
In66         O69   2.264       .  S
In66         O77   2.252       .  S
In66         O71   2.247       .  S
In66         O73   2.255       .  S
In66         O74   2.253       .  S
In66         O75   2.243       .  S
In66         O78   2.244       .  S
C67          O73   1.260       .  A
C67          O75   1.259       .  A
C67         C553   1.436       .  S
O68          C76   1.258       .  A
O69          C76   1.261       .  A
C70          O77   1.259       .  A
C70          O71   1.259       .  A
C70         C594   1.436       .  S
C72          O74   1.261       .  A
C72          O78   1.258       .  A
C72         C560   1.436       .  S
C76         C555   1.439       .  S
In79         O81   2.239       .  S
In79         O82   2.258       .  S
In79         O90   2.245       .  S
In79         O84   2.248       .  S
In79         O86   2.253       .  S
In79         O87   2.255       .  S
In79         O88   2.242       .  S
In79         O91   2.244       .  S
C80          O86   1.260       .  A
C80          O88   1.259       .  A
C80         C547   1.436       .  S
O81          C89   1.258       .  A
O82          C89   1.261       .  A
C83          O90   1.259       .  A
C83          O84   1.259       .  A
C83         C549   1.434       .  S
C85          O87   1.260       .  A
C85          O91   1.258       .  A
C85         C559   1.436       .  S
C89         C543   1.436       .  S
In92         O94   2.239       .  S
In92         O95   2.257       .  S
In92        O103   2.246       .  S
In92         O97   2.249       .  S
In92         O99   2.252       .  S
In92        O100   2.254       .  S
In92        O101   2.242       .  S
In92        O104   2.245       .  S
C93          O99   1.260       .  A
C93         O101   1.259       .  A
C93         C541   1.436       .  S
O94         C102   1.258       .  A
O95         C102   1.261       .  A
C96         O103   1.259       .  A
C96          O97   1.259       .  A
C96         C552   1.435       .  S
C98         O100   1.260       .  A
C98         O104   1.258       .  A
C98         C568   1.436       .  S
C102        C537   1.436       .  S
In105       O107   2.241       .  S
In105       O108   2.262       .  S
In105       O116   2.253       .  S
In105       O110   2.248       .  S
In105       O112   2.255       .  S
In105       O113   2.252       .  S
In105       O114   2.243       .  S
In105       O117   2.244       .  S
C106        O112   1.260       .  A
C106        O114   1.259       .  A
C106        C530   1.437       .  S
O107        C115   1.258       .  A
O108        C115   1.261       .  A
C109        O116   1.259       .  A
C109        O110   1.259       .  A
C109        C534   1.437       .  S
C111        O113   1.260       .  A
C111        O117   1.258       .  A
C111        C535   1.436       .  S
C115        C599   1.438       .  S
In118       O120   2.241       .  S
In118       O121   2.264       .  S
In118       O129   2.252       .  S
In118       O123   2.246       .  S
In118       O125   2.255       .  S
In118       O126   2.254       .  S
In118       O127   2.243       .  S
In118       O130   2.244       .  S
C119        O125   1.260       .  A
C119        O127   1.259       .  A
C119        C521   1.437       .  S
O120        C128   1.258       .  A
O121        C128   1.261       .  A
C122        O129   1.259       .  A
C122        O123   1.259       .  A
C122        C526   1.436       .  S
C124        O126   1.261       .  A
C124        O130   1.258       .  A
C124        C528   1.436       .  S
C128        C590   1.439       .  S
In131       O133   2.238       .  S
In131       O134   2.256       .  S
In131       O142   2.245       .  S
In131       O136   2.248       .  S
In131       O138   2.252   1_554  S
In131       O139   2.253       .  S
In131       O140   2.242       .  S
In131       O143   2.244       .  S
C132        O138   1.260   1_554  A
C132        O140   1.259       .  A
C132        C515   1.435   1_554  S
O133        C141   1.258       .  A
O134        C141   1.261       .  A
C135        O142   1.259       .  A
C135        O136   1.259       .  A
C135        C520   1.434       .  S
C137        O139   1.260       .  A
C137        O143   1.258       .  A
C137        C536   1.436       .  S
C141        C578   1.435       .  S
In144       O146   2.239       .  S
In144       O147   2.258   1_554  S
In144       O155   2.245   1_554  S
In144       O149   2.248       .  S
In144       O151   2.253       .  S
In144       O152   2.255   1_554  S
In144       O153   2.242       .  S
In144       O156   2.245       .  S
C145        O151   1.260       .  A
C145        O153   1.259       .  A
C145        C514   1.436       .  S
O146        C154   1.258   1_554  A
O147        C154   1.261       .  A
C148        O155   1.259   1_554  A
C148        O149   1.259       .  A
C148        C517   1.434       .  S
C150        O152   1.260       .  A
C150        O156   1.258   1_556  A
C150        C527   1.436       .  S
C154        C572   1.436       .  S
In157       O159   2.247       .  S
In157       O160   2.255       .  S
In157       O168   2.253       .  S
In157       O162   2.248       .  S
In157       O164   2.255       .  S
In157       O165   2.261       .  S
In157       O166   2.241       .  S
In157       O169   2.241       .  S
C158        O164   1.261       .  A
C158        O166   1.259       .  A
C158        C509   1.436       .  S
O159        C167   1.258       .  A
O160        C167   1.260       .  A
C161        O168   1.259       .  A
C161        O162   1.259       .  A
C161        C531   1.437       .  S
C163        O165   1.261       .  A
C163        O169   1.258       .  A
C163        C566   1.438       .  S
C167        C512   1.438       .  S
In170       O172   2.247       .  S
In170       O173   2.255       .  S
In170       O181   2.251       .  S
In170       O175   2.247       .  S
In170       O177   2.254       .  S
In170       O178   2.262       .  S
In170       O179   2.240       .  S
In170       O182   2.242       .  S
C171        O177   1.261       .  A
C171        O179   1.259       .  A
C171        C505   1.435       .  S
O172        C180   1.258       .  A
O173        C180   1.261       .  A
C174        O181   1.259       .  A
C174        O175   1.259       .  A
C174        C523   1.436       .  S
C176        O178   1.261       .  A
C176        O182   1.258       .  A
C176        C558   1.439       .  S
C180        C507   1.438       .  S
In183       O185   2.246       .  S
In183       O186   2.256       .  S
In183       O194   2.245       .  S
In183       O188   2.249       .  S
In183       O190   2.254       .  S
In183       O191   2.258       .  S
In183       O192   2.242       .  S
In183       O195   2.238       .  S
C184        O190   1.260       .  A
C184        O192   1.259       .  A
C184        C500   1.437       .  S
O185        C193   1.258       .  A
O186        C193   1.260       .  A
C187        O194   1.258       .  A
C187        O188   1.259       .  A
C187        C501   1.434       .  S
C189        O191   1.261       .  A
C189        O195   1.258       .  A
C189        C540   1.436       .  S
C193        C511   1.438       .  S
In196       O198   2.248       .  S
In196       O199   2.255       .  S
In196       O207   2.245       .  S
In196       O201   2.250       .  S
In196       O203   2.254       .  S
In196       O204   2.258       .  S
In196       O205   2.241       .  S
In196       O208   2.239       .  S
C197        O203   1.260       .  A
C197        O205   1.259       .  A
C197        C497   1.436       .  S
O198        C206   1.258       .  A
O199        C206   1.260       .  A
C200        O207   1.258       .  A
C200        O201   1.259       .  A
C200        C504   1.434       .  S
C202        O204   1.261       .  A
C202        O208   1.258       .  A
C202        C546   1.436       .  S
C206        C508   1.438       .  S
In209       O211   2.242       .  S
In209       O212   2.264       .  S
In209       O220   2.253       .  S
In209       O214   2.248       .  S
In209       O216   2.256       .  S
In209       O217   2.254       .  S
In209       O218   2.243       .  S
In209       O221   2.244       .  S
C210        O216   1.260       .  A
C210        O218   1.259       .  A
C210        C499   1.437       .  S
O211        C219   1.258       .  A
O212        C219   1.261       .  A
C213        O220   1.259       .  A
C213        O214   1.259       .  A
C213        C494   1.437       .  S
C215        O217   1.261       .  A
C215        O221   1.258       .  A
C215        C495   1.437       .  S
C219        C490   1.439       .  S
In222       O224   2.241       .  S
In222       O225   2.263       .  S
In222       O233   2.253       .  S
In222       O227   2.247       .  S
In222       O229   2.254       .  S
In222       O230   2.254       .  S
In222       O231   2.243       .  S
In222       O234   2.244       .  S
C223        O229   1.260       .  A
C223        O231   1.259       .  A
C223        C498   1.436       .  S
O224        C232   1.258       .  A
O225        C232   1.261       .  A
C226        O233   1.259       .  A
C226        O227   1.259       .  A
C226        C484   1.437       .  S
C228        O230   1.261       .  A
C228        O234   1.258       .  A
C228        C485   1.437       .  S
C232        C477   1.438       .  S
In235       O237   2.240       .  S
In235       O238   2.257       .  S
In235       O246   2.246       .  S
In235       O240   2.249       .  S
In235       O242   2.253       .  S
In235       O243   2.255       .  S
In235       O244   2.241       .  S
In235       O247   2.245       .  S
C236        O242   1.260       .  A
C236        O244   1.259       .  A
C236        C510   1.436       .  S
O237        C245   1.258       .  A
O238        C245   1.261       .  A
C239        O246   1.259       .  A
C239        O240   1.259       .  A
C239        C473   1.434       .  S
C241        O243   1.260       .  A
C241        O247   1.258       .  A
C241        C496   1.437       .  S
C245        C472   1.436       .  S
In248       O250   2.240       .  S
In248       O251   2.258       .  S
In248       O259   2.245       .  S
In248       O253   2.248       .  S
In248       O255   2.252       .  S
In248       O256   2.255       .  S
In248       O257   2.242       .  S
In248       O260   2.244       .  S
C249        O255   1.260       .  A
C249        O257   1.259       .  A
C249        C506   1.435       .  S
O250        C258   1.258       .  A
O251        C258   1.261       .  A
C252        O259   1.259       .  A
C252        O253   1.259       .  A
C252        C476   1.434       .  S
C254        O256   1.260       .  A
C254        O260   1.258       .  A
C254        C486   1.436       .  S
C258        C468   1.436       .  S
In261       O263   2.247       .  S
In261       O264   2.255       .  S
In261       O272   2.252       .  S
In261       O266   2.248       .  S
In261       O268   2.254       .  S
In261       O269   2.261       .  S
In261       O270   2.241       .  S
In261       O273   2.242       .  S
C262        O268   1.261       .  A
C262        O270   1.259       .  A
C262        C516   1.436       .  S
O263        C271   1.258       .  A
O264        C271   1.261       .  A
C265        O272   1.259       .  A
C265        O266   1.259       .  A
C265        C491   1.437       .  S
C267        O269   1.261       .  A
C267        O273   1.259       .  A
C267        C459   1.439       .  S
C271        C464   1.438       .  S
In274       O276   2.248       .  S
In274       O277   2.255       .  S
In274       O285   2.253       .  S
In274       O279   2.249       .  S
In274       O281   2.256       .  S
In274       O282   2.262       .  S
In274       O283   2.240       .  S
In274       O286   2.242       .  S
C275        O281   1.261       .  A
C275        O283   1.259       .  A
C275        C513   1.436       .  S
O276        C284   1.259       .  A
O277        C284   1.260       .  A
C278        O285   1.259       .  A
C278        O279   1.259       .  A
C278        C481   1.437       .  S
C280        O282   1.261       .  A
C280        O286   1.258       .  A
C280        C453   1.439       .  S
C284        C458   1.438       .  S
In287       O289   2.248       .  S
In287       O290   2.256       .  S
In287       O298   2.245       .  S
In287       O292   2.250       .  S
In287       O294   2.254   1_554  S
In287       O295   2.257       .  S
In287       O296   2.241       .  S
In287       O299   2.239       .  S
C288        O294   1.260   1_554  A
C288        O296   1.259       .  A
C288        C522   1.436   1_554  S
O289        C297   1.258       .  A
O290        C297   1.260       .  A
C291        O298   1.258       .  A
C291        O292   1.259       .  A
C291        C449   1.434       .  S
C293        O295   1.261       .  A
C293        O299   1.258       .  A
C293        C445   1.436       .  S
C297        C457   1.438       .  S
In300       O302   2.247       .  S
In300       O303   2.257   1_554  S
In300       O311   2.245   1_554  S
In300       O305   2.250       .  S
In300       O307   2.253       .  S
In300       O308   2.258   1_554  S
In300       O309   2.241       .  S
In300       O312   2.238       .  S
C301        O307   1.261       .  A
C301        O309   1.259       .  A
C301        C529   1.436       .  S
O302        C310   1.258   1_554  A
O303        C310   1.260       .  A
C304        O311   1.259   1_554  A
C304        O305   1.259       .  A
C304        C452   1.434       .  S
C306        O308   1.261       .  A
C306        O312   1.258   1_556  A
C306        C441   1.436       .  S
C310        C463   1.438       .  S
In313       O315   2.242       .  S
In313       O316   2.264       .  S
In313       O324   2.253       .  S
In313       O318   2.248       .  S
In313       O320   2.256       .  S
In313       O321   2.253       .  S
In313       O322   2.244       .  S
In313       O325   2.244       .  S
C314        O320   1.260       .  A
C314        O322   1.259       .  A
C314        C580   1.437       .  S
O315        C323   1.258       .  A
O316        C323   1.261       .  A
C317        O324   1.259       .  A
C317        O318   1.259       .  A
C317        C435   1.437       .  S
C319        O321   1.261       .  A
C319        O325   1.259       .  A
C319        C439   1.436       .  S
C323        C462   1.439       .  S
In326       O328   2.241       .  S
In326       O329   2.263       .  S
In326       O337   2.252       .  S
In326       O331   2.247       .  S
In326       O333   2.254       .  S
In326       O334   2.254       .  S
In326       O335   2.243       .  S
In326       O338   2.244       .  S
C327        O333   1.260       .  A
C327        O335   1.259       .  A
C327        C573   1.436       .  S
O328        C336   1.258       .  A
O329        C336   1.261       .  A
C330        O337   1.259       .  A
C330        O331   1.259       .  A
C330        C429   1.437       .  S
C332        O334   1.261       .  A
C332        O338   1.258       .  A
C332        C433   1.437       .  S
C336        C456   1.439       .  S
In339       O341   2.239       .  S
In339       O342   2.256   1_554  S
In339       O350   2.245   1_554  S
In339       O344   2.248       .  S
In339       O346   2.252       .  S
In339       O347   2.254   1_554  S
In339       O348   2.241       .  S
In339       O351   2.245       .  S
C340        O346   1.260       .  A
C340        O348   1.259       .  A
C340        C598   1.435       .  S
O341        C349   1.258   1_554  A
O342        C349   1.261       .  A
C343        O350   1.259   1_554  A
C343        O344   1.259       .  A
C343        C425   1.434       .  S
C345        O347   1.260       .  A
C345        O351   1.258   1_556  A
C345        C440   1.436       .  S
C349        C444   1.436       .  S
In352       O354   2.239       .  S
In352       O355   2.258       .  S
In352       O363   2.245       .  S
In352       O357   2.248       .  S
In352       O359   2.253   1_554  S
In352       O360   2.255       .  S
In352       O361   2.242       .  S
In352       O364   2.245       .  S
C353        O359   1.260   1_554  A
C353        O361   1.259       .  A
C353        C585   1.436   1_554  S
O354        C362   1.258       .  A
O355        C362   1.261       .  A
C356        O363   1.259       .  A
C356        O357   1.259       .  A
C356        C428   1.434       .  S
C358        O360   1.260       .  A
C358        O364   1.258       .  A
C358        C434   1.437       .  S
C362        C448   1.436       .  S
In365       O367   2.248       .  S
In365       O368   2.256       .  S
In365       O376   2.252       .  S
In365       O370   2.249       .  S
In365       O372   2.255       .  S
In365       O373   2.262       .  S
In365       O374   2.241       .  S
In365       O377   2.242       .  S
C366        O372   1.261       .  A
C366        O374   1.259       .  A
C366        C542   1.436       .  S
O367        C375   1.258       .  A
O368        C375   1.261       .  A
C369        O376   1.259       .  A
C369        O370   1.259       .  A
C369        C438   1.437       .  S
C371        O373   1.261       .  A
C371        O377   1.258       .  A
C371        C487   1.439       .  S
C375        C423   1.439       .  S
In378       O380   2.247       .  S
In378       O381   2.255       .  S
In378       O389   2.253       .  S
In378       O383   2.248       .  S
In378       O385   2.255       .  S
In378       O386   2.261       .  S
In378       O387   2.240       .  S
In378       O390   2.241       .  S
C379        O385   1.261       .  A
C379        O387   1.259       .  A
C379        C548   1.436       .  S
O380        C388   1.258       .  A
O381        C388   1.260       .  A
C382        O389   1.259       .  A
C382        O383   1.259       .  A
C382        C432   1.437       .  S
C384        O386   1.261       .  A
C384        O390   1.258       .  A
C384        C480   1.438       .  S
C388        C422   1.438       .  S
In391       O393   2.248       .  S
In391       O394   2.256       .  S
In391       O402   2.245       .  S
In391       O396   2.250       .  S
In391       O398   2.254       .  S
In391       O399   2.259       .  S
In391       O400   2.241       .  S
In391       O403   2.239       .  S
C392        O398   1.260       .  A
C392        O400   1.259       .  A
C392        C554   1.436       .  S
O393        C401   1.258       .  A
O394        C401   1.260       .  A
C395        O402   1.259       .  A
C395        O396   1.259       .  A
C395        C420   1.434       .  S
C397        O399   1.261       .  A
C397        O403   1.258       .  A
C397        C465   1.436       .  S
C401        C421   1.438       .  S
In404       O406   2.247       .  S
In404       O407   2.257       .  S
In404       O415   2.244       .  S
In404       O409   2.250       .  S
In404       O411   2.254       .  S
In404       O412   2.258       .  S
In404       O413   2.242       .  S
In404       O416   2.239       .  S
C405        O411   1.261       .  A
C405        O413   1.259       .  A
C405        C562   1.437       .  S
O406        C414   1.258       .  A
O407        C414   1.260       .  A
C408        O415   1.258       .  A
C408        O409   1.259       .  A
C408        C417   1.434       .  S
C410        O412   1.261       .  A
C410        O416   1.258       .  A
C410        C469   1.436       .  S
C414        C424   1.439       .  S
C417        C418   1.205       .  T
C418        C419   1.411       .  S
C419        C420   1.205       .  T
C421        C422   1.207       .  T
C423        C424   1.208       .  T
C425        C426   1.205       .  T
C426        C427   1.411       .  S
C427        C428   1.205       .  T
C429        C430   1.207       .  T
C430        C431   1.414       .  S
C431        C432   1.207       .  T
C433        C434   1.207       .  T
C435        C436   1.207       .  T
C436        C437   1.414       .  S
C437        C438   1.207       .  T
C439        C440   1.206       .  T
C441        C442   1.206       .  T
C442        C443   1.412       .  S
C443        C444   1.206       .  T
C445        C446   1.206       .  T
C446        C447   1.412       .  S
C447        C448   1.206       .  T
C449        C450   1.205       .  T
C450        C451   1.411       .  S
C451        C452   1.205       .  T
C453        C454   1.208       .  T
C454        C455   1.415   1_455  S
C455        C456   1.208       .  T
C457        C458   1.208       .  T
C459        C460   1.208       .  T
C460        C461   1.415   1_455  S
C461        C462   1.208       .  T
C463        C464   1.208       .  T
C465        C466   1.206       .  T
C466        C467   1.413       .  S
C467        C468   1.206       .  T
C469        C470   1.206       .  T
C470        C471   1.413       .  S
C471        C472   1.206       .  T
C473        C474   1.205       .  T
C474        C475   1.411       .  S
C475        C476   1.205       .  T
C477        C478   1.208       .  T
C478        C479   1.415   1_455  S
C479        C480   1.208       .  T
C481        C482   1.207       .  T
C482        C483   1.414       .  S
C483        C484   1.207       .  T
C485        C486   1.206       .  T
C487        C488   1.208       .  T
C488        C489   1.416   1_655  S
C489        C490   1.208       .  T
C491        C492   1.207       .  T
C492        C493   1.414       .  S
C493        C494   1.207       .  T
C495        C496   1.207       .  T
C497        C498   1.206       .  T
C499        C500   1.207       .  T
C501        C502   1.205       .  T
C502        C503   1.411       .  S
C503        C504   1.205   1_545  T
C505        C506   1.206       .  T
C507        C508   1.207       .  T
C509        C510   1.206       .  T
C511        C512   1.207       .  T
C513        C514   1.206       .  T
C515        C516   1.206       .  T
C517        C518   1.205   1_565  T
C518        C519   1.411       .  S
C519        C520   1.205       .  T
C521        C522   1.206       .  T
C523        C524   1.206       .  T
C524        C525   1.413       .  S
C525        C526   1.206       .  T
C527        C528   1.206       .  T
C529        C530   1.206       .  T
C531        C532   1.207       .  T
C532        C533   1.414       .  S
C533        C534   1.207       .  T
C535        C536   1.206       .  T
C537        C538   1.206       .  T
C538        C539   1.412   1_655  S
C539        C540   1.206       .  T
C541        C542   1.206       .  T
C543        C544   1.206       .  T
C544        C545   1.413   1_655  S
C545        C546   1.206       .  T
C547        C548   1.206       .  T
C549        C550   1.205   1_565  T
C550        C551   1.411       .  S
C551        C552   1.205       .  T
C553        C554   1.206       .  T
C555        C556   1.208       .  T
C556        C557   1.416       .  S
C557        C558   1.208       .  T
C559        C560   1.206       .  T
C561        C562   1.207       .  T
C563        C564   1.207       .  T
C564        C565   1.415       .  S
C565        C566   1.207       .  T
C567        C568   1.206       .  T
C569        C570   1.206       .  T
C570        C571   1.413   1_655  S
C571        C572   1.206       .  T
C573        C574   1.206       .  T
C575        C576   1.206       .  T
C576        C577   1.412   1_655  S
C577        C578   1.206       .  T
C579        C580   1.207       .  T
C581        C582   1.205       .  T
C582        C583   1.411       .  S
C583        C584   1.205   1_545  T
C585        C586   1.206       .  T
C587        C588   1.208       .  T
C588        C589   1.415       .  S
C589        C590   1.208       .  T
C591        C592   1.207       .  T
C592        C593   1.413       .  S
C593        C594   1.206       .  T
C595        C596   1.207       .  T
C597        C598   1.206       .  T
C599        C600   1.207       .  T
C600        C601   1.415       .  S
C601        C602   1.207       .  T
C603        C604   1.207       .  T
C604        C605   1.414       .  S
C605        C606   1.207       .  T
C607        C608   1.207       .  T
