geometry optimzed in LAMMPS
_audit_creation_date              2020-12-01 
_audit_creation_method            'lammps2cif' 
_symmetry_space_group_name_H-M    'P1' 
_symmetry_Int_Tables_number       1 
_symmetry_cell_setting            triclinic 
loop_ 
_symmetry_equiv_pos_as_xyz 
  x,y,z 
_cell_length_a                    42.04083179 
_cell_length_b                    48.49114194117287 
_cell_length_c                    25.32364737717419 
_cell_angle_alpha                 90.08459076555638 
_cell_angle_beta                  90.21371514526152 
_cell_angle_gamma                 89.37470861046808 
loop_ 
_atom_site_label 
_atom_site_type_symbol 
_atom_site_fract_x 
_atom_site_fract_y 
_atom_site_fract_z 
_atom_site_charge 
N1          N  0.50101820  0.51112030  0.17201637    -0.34200
N2          N  0.45133414  0.50051433  0.24983282    -0.54700
N3          N  0.50001970  0.98708562  0.32872754    -0.34200
N4          N  0.54971133  0.99765570  0.25090875    -0.54700
C5          C  0.47515927  0.51152038  0.13988198     0.29400
C6          C  0.52709236  0.01043130  0.14070107     0.29400
C7          C  0.47396252  0.48775156  0.36004074     0.29400
C8          C  0.52586325  0.98662039  0.36085280     0.29400
C9          C  0.43236251  0.50609416  0.20789687     0.38000
C10         C  0.43188978  0.49503658  0.29082076     0.38000
C11         C  0.56917679  0.00302959  0.20989194     0.38000
C12         C  0.56865822  0.99193990  0.29281404     0.38000
C13         C  0.48499592  0.51193631  0.08761863    -0.19500
C14         C  0.51765049  0.01128424  0.08813542    -0.19500
C15         C  0.48339247  0.48684183  0.41261365    -0.19400
C16         C  0.51603452  0.98616446  0.41312755    -0.19400
C17         C  0.40066588  0.50427941  0.22250290    -0.20500
C18         C  0.40037694  0.49727183  0.27488122    -0.20500
C19         C  0.60068169  0.00059845  0.22579508    -0.20500
C20         C  0.60036317  0.99357474  0.27817362    -0.20500
C21         C  0.44288021  0.51106108  0.15578783    -0.15900
C22         C  0.55922608  0.00886661  0.15765603    -0.15900
C23         C  0.55812090  0.98697629  0.34491612    -0.15900
C24         C  0.44185201  0.48926535  0.34306029    -0.15900
H25         H  0.47019793  0.51219800  0.05253998     0.17100
H26         H  0.53269609  0.01093708  0.05353407     0.17100
H27         H  0.46834525  0.48712424  0.44721518     0.17100
H28         H  0.53083079  0.98581698  0.44820739     0.17100
H29         H  0.37983558  0.50733761  0.19786450     0.15300
H30         H  0.37930933  0.49427974  0.29854498     0.15300
H31         H  0.62176264  0.00345132  0.20209778     0.15300
H32         H  0.62117881  0.99036360  0.30278090     0.15300
H33         H  0.50092051  0.51304475  0.21277908     0.28600
H34         H  0.50011895  0.98517651  0.28794774     0.28600
C35         C  0.33228129  0.47005990  0.01618591     0.88900
C36         C  0.31308651  0.49555785  0.99906586    -0.51300
C37         C  0.33160285  0.01738347  0.48580944     0.11900
C38         C  0.36758704  0.01182313  0.49143468     0.22800
C39         C  0.35511729  0.46401823  0.47021290    -0.52000
C40         C  0.37355916  0.48604730  0.45748284     0.12000
C41         C  0.35359176  0.47984358  0.06142711    -0.51600
C42         C  0.37226207  0.00152996  0.04836471     0.12500
H43         H  0.28728951  0.49605583  0.99618660     0.17000
H44         H  0.38275278  0.02959502  0.48078793     0.02800
H45         H  0.35669678  0.44427891  0.45000098     0.17300
H46         H  0.35499730  0.46962603  0.09956779     0.17100
C47         C  0.66768701  0.02964919  0.48319633     0.88900
C48         C  0.64630207  0.01938235  0.43850727    -0.51300
C49         C  0.62845321  0.49726437  0.45199963     0.11900
C50         C  0.63392325  0.48706651  0.00879141     0.22800
C51         C  0.64509808  0.03516389  0.02974951    -0.52000
C52         C  0.62744435  0.01271003  0.04293741     0.12000
C53         C  0.68781196  0.00460097  0.99976629    -0.51600
C54         C  0.67011412  0.48233399  0.01337945     0.12500
H55         H  0.64428120  0.02953835  0.40037052     0.17000
H56         H  0.61941330  0.46893513  0.01974679     0.02800
H57         H  0.64303166  0.05489351  0.04988629     0.17300
H58         H  0.71363720  0.00465973  0.00176587     0.17100
N59         N  0.49878707  0.27939984  0.32603401    -0.34200
N60         N  0.54870329  0.26943934  0.24778626    -0.54700
N61         N  0.50026682  0.25585960  0.16885402    -0.34200
N62         N  0.45031235  0.26646592  0.24610684    -0.54700
C63         C  0.52469316  0.27908790  0.35816281     0.29400
C64         C  0.47277075  0.27756418  0.35727867     0.29400
C65         C  0.52634518  0.25585275  0.13759275     0.29400
C66         C  0.47446531  0.25404580  0.13683241     0.29400
C67         C  0.56755179  0.27506312  0.28970807     0.38000
C68         C  0.56824118  0.26446693  0.20648175     0.38000
C69         C  0.43078906  0.27118144  0.28748655     0.38000
C70         C  0.43149099  0.26027837  0.20440277     0.38000
C71         C  0.51488878  0.27818469  0.41040200    -0.19500
C72         C  0.48226331  0.27722065  0.40985161    -0.19500
C73         C  0.51698626  0.25336797  0.08517608    -0.19400
C74         C  0.48436378  0.25221193  0.08470560    -0.19400
C75         C  0.59926222  0.27397142  0.27471222    -0.20500
C76         C  0.59968985  0.26727252  0.22213852    -0.20500
C77         C  0.39933095  0.26835928  0.27169785    -0.18900
C78         C  0.39978629  0.26144991  0.21922047    -0.20500
C79         C  0.55701158  0.27887040  0.34223524    -0.15900
C80         C  0.44068724  0.27552296  0.34028797    -0.15900
C81         C  0.44219157  0.25405597  0.15281304    -0.15900
C82         C  0.55840743  0.25792420  0.15451562    -0.15900
H83         H  0.52971171  0.27761794  0.44544218     0.17100
H84         H  0.46729237  0.27578476  0.44440923     0.17100
H85         H  0.53205615  0.25277660  0.05061255     0.17100
H86         H  0.46961600  0.25059444  0.04972560     0.17100
H87         H  0.62002647  0.27714667  0.29928781     0.15300
H88         H  0.62081253  0.26464436  0.19826425     0.15300
H89         H  0.37820198  0.27047879  0.29572433     0.15300
H90         H  0.37908809  0.25759997  0.19486366     0.15300
H91         H  0.49874673  0.28216172  0.28545690     0.28600
H92         H  0.50023309  0.25509218  0.20965877     0.28600
C93         C  0.33610175  0.22287258  0.47818038     0.88900
C94         C  0.35625209  0.23436127  0.43324201    -0.51300
C95         C  0.37194785  0.25782320  0.44635015     0.11900
C96         C  0.36575707  0.26794587  0.00295153     0.22800
C97         C  0.35935596  0.21930738  0.02483672    -0.52000
C98         C  0.37484813  0.24309338  0.03754466     0.12000
C99         C  0.31377341  0.24654613  0.99438455    -0.51600
C100        C  0.32931780  0.27009387  0.00760637     0.12500
H101        H  0.35900142  0.22417851  0.39522919     0.17000
H102        H  0.37849568  0.28715645  0.01356608     0.02800
H103        H  0.36333272  0.19993912  0.04544585     0.17300
H104        H  0.28808155  0.24463668  0.99662324     0.17100
C105        C  0.66653698  0.23212217  0.48090450     0.88900
C106        C  0.68701679  0.25669665  0.99688496    -0.51300
C107        C  0.66967872  0.27958344  0.01007538     0.11900
C108        C  0.63343273  0.27595036  0.00543817     0.22800
C109        C  0.64388126  0.22771511  0.02763903    -0.52000
C110        C  0.62658870  0.25083368  0.04021095     0.12000
C111        C  0.64522946  0.24266087  0.43594829    -0.51600
C112        C  0.62768435  0.26544062  0.44891623     0.12500
H113        H  0.71281965  0.25578795  0.99938616     0.17000
H114        H  0.61922850  0.29461086  0.01602110     0.02800
H115        H  0.64155013  0.20825486  0.04838208     0.17300
H116        H  0.64300107  0.23221818  0.39811884     0.17100
N117        N  0.00053053  0.27575226  0.42311874    -0.34200
N118        N  0.04965190  0.26135571  0.50092921    -0.54700
N119        N  0.00041121  0.25189874  0.07987414    -0.34200
N120        N  0.95131488  0.26697968  0.50294331    -0.54700
C121        C  0.02613155  0.27335899  0.39096656     0.29400
C122        C  0.97426797  0.27603187  0.39190058     0.29400
C123        C  0.02657232  0.24936662  0.11097163     0.29400
C124        C  0.97467497  0.25215188  0.11193523     0.29400
C125        C  0.06879119  0.26617331  0.45927245     0.38000
C126        C  0.06888439  0.25505435  0.04218951     0.38000
C127        C  0.93215099  0.27348343  0.46174919     0.38000
C128        C  0.93214271  0.26247655  0.04474201     0.38000
C129        C  0.01602501  0.27309701  0.33872548    -0.19500
C130        C  0.98341678  0.27476057  0.33930629    -0.19500
C131        C  0.01723925  0.24731241  0.16334406    -0.19400
C132        C  0.98461679  0.24905406  0.16394491    -0.19400
C133        C  0.10040902  0.26312051  0.47431881    -0.20500
C134        C  0.10046012  0.25607510  0.02669993    -0.20500
C135        C  0.90060391  0.27347349  0.47771664    -0.20500
C136        C  0.90060424  0.26650611  0.03015151    -0.20500
C137        C  0.05839354  0.27104261  0.40690160    -0.15900
C138        C  0.94219287  0.27697384  0.40894354    -0.15900
C139        C  0.94242832  0.25517862  0.09616717    -0.15900
C140        C  0.05869653  0.24904369  0.09405504    -0.15900
H141        H  0.03058049  0.27135374  0.30367487     0.17100
H142        H  0.96817504  0.27454994  0.30475698     0.17100
H143        H  0.03236281  0.24517050  0.19781813     0.17100
H144        H  0.96993999  0.24850819  0.19895382     0.17100
H145        H  0.12131659  0.26527620  0.44991460     0.15300
H146        H  0.12141454  0.25213774  0.05060240     0.15300
H147        H  0.87966063  0.27748479  0.45382639     0.15300
H148        H  0.87970281  0.26448550  0.05461597     0.15300
H149        H  0.00104971  0.27876372  0.46368722     0.28600
H150        H  0.00003089  0.25157285  0.03898242     0.28600
C151        C  0.16710736  0.22257052  0.26892932     0.88900
C152        C  0.14586758  0.23326238  0.31362496    -0.51300
C153        C  0.12796709  0.25574036  0.30005980     0.11900
C154        C  0.13320025  0.26579363  0.24329036     0.22800
C155        C  0.14429179  0.21750139  0.22229250    -0.52000
C156        C  0.12658973  0.24032403  0.20912642     0.12000
C157        C  0.18711260  0.24728276  0.25229100    -0.51600
C158        C  0.16930739  0.26984553  0.23859074     0.12500
H159        H  0.14409853  0.22323693  0.35185507     0.17000
H160        H  0.11866086  0.28420861  0.23228939     0.02800
H161        H  0.14223808  0.19786348  0.20194860     0.17300
H162        H  0.21291792  0.24672651  0.24997344     0.17100
C163        C  0.83442535  0.23090178  0.26990649     0.88900
C164        C  0.81355323  0.25543285  0.25298550    -0.51300
C165        C  0.83054346  0.27817707  0.23978976     0.11900
C166        C  0.86681902  0.27442566  0.24519290     0.22800
C167        C  0.85755745  0.22606269  0.22378605    -0.52000
C168        C  0.87448822  0.24902587  0.21107164     0.12000
C169        C  0.85509563  0.24169097  0.31509445    -0.51600
C170        C  0.87221161  0.26432803  0.30206333     0.12500
H171        H  0.78777208  0.25466583  0.25031524     0.17000
H172        H  0.88073165  0.29296762  0.23460552     0.02800
H173        H  0.86041988  0.20644338  0.20350405     0.17300
H174        H  0.85717849  0.23155718  0.35324274     0.17100
N175        N  0.00018684  0.47425235  0.42385032    -0.34200
N176        N  0.04951713  0.48514313  0.00263984    -0.54700
N177        N  0.00034472  0.49740763  0.08111208    -0.34200
N178        N  0.95100488  0.48596735  0.50318445    -0.54700
C179        C  0.02607989  0.47486813  0.39207420     0.29400
C180        C  0.97410710  0.47547420  0.39225424     0.29400
C181        C  0.02640443  0.49784534  0.11267646     0.29400
C182        C  0.97447516  0.49849784  0.11283805     0.29400
C183        C  0.06868147  0.47987936  0.46101526     0.38000
C184        C  0.06875090  0.49052993  0.04419419     0.38000
C185        C  0.93175648  0.48113327  0.46142243     0.38000
C186        C  0.93186379  0.49183128  0.04460764     0.38000
C187        C  0.01626293  0.47538101  0.33969333    -0.19500
C188        C  0.98360534  0.47578052  0.33980036    -0.19500
C189        C  0.01693651  0.49983003  0.16503430    -0.19400
C190        C  0.98427280  0.50025591  0.16512816    -0.19400
C191        C  0.10030853  0.48166058  0.47642644    -0.20500
C192        C  0.10034621  0.48841250  0.02897354    -0.20500
C193        C  0.90016230  0.48354544  0.47669237    -0.20500
C194        C  0.90024243  0.49032345  0.02924023    -0.20500
C195        C  0.05836495  0.47566686  0.40842123    -0.15900
C196        C  0.94192449  0.47693584  0.40878062    -0.15900
C197        C  0.94223084  0.49805172  0.09641527    -0.15900
C198        C  0.05854075  0.49665897  0.09608221    -0.15900
H199        H  0.03106998  0.47603596  0.30484293     0.17100
H200        H  0.96858729  0.47678001  0.30502137     0.17100
H201        H  0.03197887  0.50061055  0.19978394     0.17100
H202        H  0.96944956  0.50140254  0.19994478     0.17100
H203        H  0.12124402  0.47887170  0.45216350     0.15300
H204        H  0.12130638  0.49145692  0.05315118     0.15300
H205        H  0.87916509  0.48123602  0.45228766     0.15300
H206        H  0.87935310  0.49386818  0.05327737     0.15300
H207        H  0.00026308  0.47163198  0.46449317     0.28600
H208        H  0.00027194  0.49847411  0.04028416     0.28600
C209        C  0.16769738  0.02040284  0.26921482     0.88900
C210        C  0.18751837  0.49517708  0.25260957    -0.51300
C211        C  0.16956651  0.47290912  0.23958637     0.11900
C212        C  0.13349062  0.47775224  0.24505058     0.22800
C213        C  0.14460039  0.02566922  0.22298622    -0.52000
C214        C  0.12674432  0.00316127  0.21063662     0.12000
C215        C  0.14672138  0.01047297  0.31453706    -0.51600
C216        C  0.12862047  0.48829838  0.30174982     0.12500
H217        H  0.21329270  0.49523497  0.24951428     0.17000
H218        H  0.11880248  0.45960187  0.23459227     0.02800
H219        H  0.14246070  0.04521774  0.20231293     0.17300
H220        H  0.14514159  0.02088843  0.35249494     0.17100
C221        C  0.83474609  0.02738184  0.26982302     0.88900
C222        C  0.85544036  0.01617427  0.31493244    -0.51300
C223        C  0.87227153  0.49302874  0.30190024     0.11900
C224        C  0.86658045  0.48288738  0.24517431     0.22800
C225        C  0.85781374  0.03141758  0.22346576    -0.52000
C226        C  0.87444293  0.00792957  0.21082892     0.12000
C227        C  0.81356344  0.00335068  0.25319191    -0.51600
C228        C  0.83027717  0.48010988  0.23998716     0.12500
H229        H  0.85773139  0.02636061  0.35301200     0.17000
H230        H  0.88025153  0.46392819  0.23461468     0.02800
H231        H  0.86084780  0.05087452  0.20299422     0.17300
H232        H  0.78779373  0.00482281  0.25056810     0.17100
O233        O  0.74443165  0.15806003  0.44459180    -0.72000
O234        O  0.79320724  0.10182335  0.37406234    -0.72000
O235        O  0.79285358  0.15768872  0.37407176    -0.72100
O236        O  0.74488679  0.10215698  0.44469129    -0.72100
O237        O  0.70987033  0.10222619  0.37813499    -0.72100
O238        O  0.75786699  0.15777870  0.30747488    -0.72000
O239        O  0.75819344  0.10190867  0.30751434    -0.72000
O240        O  0.70947730  0.15808876  0.37796112    -0.72100
Ni241      Ni  0.77011204  0.12992973  0.41173820     1.25400
Ni242      Ni  0.73258628  0.13000391  0.34040240     1.25400
C243        C  0.71897181  0.16725995  0.42266999     0.90200
C244        C  0.78365996  0.09269315  0.32932579     0.90100
C245        C  0.78321427  0.16678764  0.32930996     0.90200
C246        C  0.71955517  0.09312445  0.42288112     0.90300
O247        O  0.75740647  0.35183771  0.19399261    -0.72000
O248        O  0.70792037  0.40794568  0.12442177    -0.72000
O249        O  0.70807156  0.35211515  0.12437489    -0.72100
O250        O  0.75721967  0.40768293  0.19388869    -0.72100
O251        O  0.79156240  0.40735931  0.12681158    -0.72100
O252        O  0.74238933  0.35183944  0.05726462    -0.72000
O253        O  0.74223452  0.40768123  0.05730356    -0.72000
O254        O  0.79171201  0.35150537  0.12686489    -0.72100
Ni255      Ni  0.73142766  0.37989711  0.16157594     1.25400
Ni256      Ni  0.76820840  0.37957601  0.08965040     1.25400
C257        C  0.78267563  0.34256835  0.17185518     0.90200
C258        C  0.71699088  0.41696387  0.07952790     0.90100
C259        C  0.71713548  0.34301202  0.07934360     0.90200
C260        C  0.78242755  0.41655688  0.17172914     0.90300
O261        O  0.26149129  0.09261313  0.44072497    -0.72000
O262        O  0.21178479  0.14902471  0.37251699    -0.72000
O263        O  0.21207278  0.09315263  0.37171471    -0.72100
O264        O  0.26123598  0.14849289  0.44163736    -0.72100
O265        O  0.29527174  0.14846586  0.37413354    -0.72100
O266        O  0.24604834  0.09308460  0.30412602    -0.72000
O267        O  0.24578246  0.14905051  0.30497180    -0.72000
O268        O  0.29555419  0.09253180  0.37326338    -0.72100
Ni269      Ni  0.23542929  0.12082197  0.40904922     1.25400
Ni270      Ni  0.27189905  0.12079012  0.33669834     1.25400
C271        C  0.28659282  0.08332709  0.41811284     0.90200
C272        C  0.22064387  0.15825123  0.32764186     0.90100
C273        C  0.22102578  0.08405512  0.32663042     0.90200
C274        C  0.28627953  0.15752546  0.41924499     0.90300
O275        O  0.24026516  0.39864458  0.19047581    -0.72000
O276        O  0.28868470  0.34228566  0.12011535    -0.72000
O277        O  0.28852132  0.39806982  0.11981648    -0.72100
O278        O  0.24029910  0.34285019  0.19073831    -0.72100
O279        O  0.20511789  0.34299620  0.12442921    -0.72100
O280        O  0.25340028  0.39831603  0.05341388    -0.72000
O281        O  0.25359269  0.34242572  0.05368663    -0.72000
O282        O  0.20505746  0.39889472  0.12421262    -0.72100
Ni283      Ni  0.26569148  0.37044773  0.15764430     1.25400
Ni284      Ni  0.22801177  0.37065077  0.08653878     1.25400
C285        C  0.21477116  0.40795871  0.16890536     0.90200
C286        C  0.27916900  0.33325855  0.07532772     0.90100
C287        C  0.27884338  0.40721696  0.07512055     0.90200
C288        C  0.21481082  0.33394693  0.16920796     0.90300
C289        C  0.80061793  0.43758699  0.19753418    -0.10800
C290        C  0.81491348  0.45621370  0.21806314    -0.12400
C291        C  0.81672294  0.05218032  0.28544207    -0.10800
C292        C  0.80167964  0.07126121  0.30361304    -0.12400
C293        C  0.18353566  0.44839596  0.21663336    -0.10800
C294        C  0.19700888  0.42936851  0.19520929    -0.12400
C295        C  0.18700117  0.04425901  0.28417696    -0.10800
C296        C  0.20274227  0.06290353  0.30141938    -0.12400
C297        C  0.08291099  0.50070314  0.13589880    -0.10800
C298        C  0.10313758  0.50294008  0.16939856    -0.12400
C299        C  0.10371407  0.47908769  0.33627823    -0.10800
C300        C  0.08269377  0.47557650  0.36780501    -0.12400
C301        C  0.89666953  0.48227243  0.33642380    -0.10800
C302        C  0.91750862  0.47772152  0.36814880    -0.12400
C303        C  0.91802033  0.50313238  0.13615443    -0.10800
C304        C  0.89793832  0.00642068  0.16957088    -0.12400
C305        C  0.81614309  0.20664821  0.28550133    -0.10800
C306        C  0.80104793  0.18791364  0.30359173    -0.12400
C307        C  0.81538916  0.30247867  0.21808560    -0.10800
C308        C  0.80102907  0.32135288  0.19770972    -0.12400
C309        C  0.18348996  0.29412486  0.21640920    -0.10800
C310        C  0.19705592  0.31294666  0.19549732    -0.12400
C311        C  0.20209214  0.17966901  0.30268577    -0.10800
C312        C  0.18630107  0.19844548  0.28491274    -0.12400
C313        C  0.08310362  0.24379269  0.13364151    -0.10800
C314        C  0.10323090  0.24088739  0.16732103    -0.12400
C315        C  0.10326934  0.26600303  0.33430379    -0.10800
C316        C  0.08247820  0.27028952  0.36601641    -0.12400
C317        C  0.89667420  0.27438232  0.33674900    -0.10800
C318        C  0.91758338  0.27786699  0.36866433    -0.12400
C319        C  0.91818278  0.25170453  0.13629005    -0.10800
C320        C  0.89807611  0.24959910  0.16989544    -0.12400
C321        C  0.69878439  0.32218306  0.05323828    -0.10800
C322        C  0.68451262  0.30365662  0.03232017    -0.12400
C323        C  0.68529119  0.20766034  0.46565261    -0.10800
C324        C  0.70080996  0.18869731  0.44811632    -0.12400
C325        C  0.31912370  0.19781529  0.46258882    -0.10800
C326        C  0.30437126  0.17874019  0.44464975    -0.12400
C327        C  0.31269300  0.29377502  0.02886871    -0.10800
C328        C  0.29756377  0.31222670  0.04908655    -0.12400
C329        C  0.39571869  0.26906759  0.41200345    -0.10800
C330        C  0.41629513  0.27413821  0.38056285    -0.12400
C331        C  0.41823008  0.24860022  0.11273603    -0.10800
C332        C  0.39829721  0.24503085  0.07906164    -0.12400
C333        C  0.60249429  0.27526582  0.41478241    -0.10800
C334        C  0.58131771  0.27899568  0.38319985    -0.12400
C335        C  0.60320291  0.25176585  0.08160222    -0.10800
C336        C  0.58300441  0.25415313  0.11502140    -0.12400
C337        C  0.70177604  0.07201160  0.44869822    -0.10800
C338        C  0.68658023  0.05343364  0.46710401    -0.12400
C339        C  0.68463705  0.45757846  0.03435991    -0.10800
C340        C  0.69876346  0.43838245  0.05406407    -0.12400
C341        C  0.29681895  0.42824091  0.04938032    -0.10800
C342        C  0.31252757  0.44666851  0.03159884    -0.12400
C343        C  0.31810655  0.04229957  0.46362727    -0.10800
C344        C  0.30465822  0.06167266  0.44323699    -0.12400
C345        C  0.39755099  0.01016705  0.08290871    -0.10800
C346        C  0.41865045  0.01262908  0.11488504    -0.12400
C347        C  0.41735162  0.48647519  0.38285086    -0.10800
C348        C  0.39712611  0.48534181  0.41637636    -0.12400
C349        C  0.58230322  0.98534508  0.38582102    -0.10800
C350        C  0.60331494  0.48800585  0.41785278    -0.12400
C351        C  0.60396323  0.01299201  0.08427064    -0.10800
C352        C  0.58375218  0.01168776  0.11784255    -0.12400
N353        N  0.50101821  0.51112028  0.67201635    -0.34200
N354        N  0.45133415  0.50051450  0.74983291    -0.54700
N355        N  0.50001968  0.98708561  0.82872757    -0.34200
N356        N  0.54971131  0.99765583  0.75090884    -0.54700
C357        C  0.47515930  0.51152037  0.63988199     0.29400
C358        C  0.52709237  0.01043129  0.64070103     0.29400
C359        C  0.47396252  0.48775155  0.86004065     0.29400
C360        C  0.52586321  0.98662034  0.86085270     0.29400
C361        C  0.43236252  0.50609429  0.70789688     0.38000
C362        C  0.43188979  0.49503661  0.79082073     0.38000
C363        C  0.56917676  0.00302964  0.70989200     0.38000
C364        C  0.56865821  0.99193992  0.79281409     0.38000
C365        C  0.48499599  0.51193629  0.58761864    -0.19500
C366        C  0.51765049  0.01128423  0.58813538    -0.19500
C367        C  0.48339245  0.48684180  0.91261357    -0.19400
C368        C  0.51603448  0.98616431  0.91312747    -0.19400
C369        C  0.40066589  0.50427944  0.72250279    -0.20500
C370        C  0.40037695  0.49727181  0.77488109    -0.20500
C371        C  0.60068166  0.00059844  0.72579514    -0.20500
C372        C  0.60036317  0.99357471  0.77817365    -0.20500
C373        C  0.44288024  0.51106112  0.65578782    -0.15900
C374        C  0.55922610  0.00886661  0.65765604    -0.15900
C375        C  0.55812088  0.98697627  0.84491614    -0.15900
C376        C  0.44185199  0.48926533  0.84306028    -0.15900
H377        H  0.47019802  0.51219799  0.55253996     0.17100
H378        H  0.53269607  0.01093707  0.55353402     0.17100
H379        H  0.46834522  0.48712416  0.94721507     0.17100
H380        H  0.53083075  0.98581670  0.94820730     0.17100
H381        H  0.37983560  0.50733756  0.69786430     0.15300
H382        H  0.37930933  0.49427966  0.79854478     0.15300
H383        H  0.62176258  0.00345134  0.70209784     0.15300
H384        H  0.62117884  0.99036358  0.80278087     0.15300
H385        H  0.50092052  0.51304473  0.71277914     0.28600
H386        H  0.50011893  0.98517649  0.78794725     0.28600
C387        C  0.33228131  0.47005988  0.51618588     0.88900
C388        C  0.31308652  0.49555783  0.49906582    -0.51300
C389        C  0.33160288  0.01738349  0.98580945     0.11900
C390        C  0.36758709  0.01182315  0.99143473     0.22800
C391        C  0.35511730  0.46401824  0.97021297    -0.52000
C392        C  0.37355923  0.48604729  0.95748300     0.12000
C393        C  0.35359182  0.47984355  0.56142706    -0.51600
C394        C  0.37226204  0.00152993  0.54836466     0.12500
H395        H  0.28728952  0.49605579  0.49618646     0.17000
H396        H  0.38275284  0.02959505  0.98078796     0.02800
H397        H  0.35669674  0.44427895  0.95000094     0.17300
H398        H  0.35499741  0.46962597  0.59956772     0.17100
C399        C  0.66768703  0.02964917  0.98319635     0.88900
C400        C  0.64630209  0.01938233  0.93850729    -0.51300
C401        C  0.62845317  0.49726436  0.95199974     0.11900
C402        C  0.63392326  0.48706652  0.50879130     0.22800
C403        C  0.64509806  0.03516389  0.52974949    -0.52000
C404        C  0.62744437  0.01271001  0.54293740     0.12000
C405        C  0.68781195  0.00460098  0.49976617    -0.51600
C406        C  0.67011411  0.48233400  0.51337944     0.12500
H407        H  0.64428124  0.02953832  0.90037053     0.17000
H408        H  0.61941330  0.46893514  0.51974662     0.02800
H409        H  0.64303159  0.05489350  0.54988631     0.17300
H410        H  0.71363720  0.00465975  0.50176564     0.17100
N411        N  0.49878707  0.27939995  0.82603399    -0.34200
N412        N  0.54870328  0.26943931  0.74778624    -0.54700
N413        N  0.50026684  0.25585969  0.66885405    -0.34200
N414        N  0.45031234  0.26646592  0.74610678    -0.54700
C415        C  0.52469315  0.27908793  0.85816277     0.29400
C416        C  0.47277074  0.27756425  0.85727862     0.29400
C417        C  0.52634520  0.25585278  0.63759274     0.29400
C418        C  0.47446532  0.25404583  0.63683239     0.29400
C419        C  0.56755178  0.27506311  0.78970804     0.38000
C420        C  0.56824118  0.26446691  0.70648171     0.38000
C421        C  0.43078904  0.27118147  0.78748648     0.38000
C422        C  0.43149097  0.26027835  0.70440272     0.38000
C423        C  0.51488873  0.27818467  0.91040195    -0.19500
C424        C  0.48226326  0.27722064  0.90985157    -0.19500
C425        C  0.51698629  0.25336795  0.58517611    -0.19400
C426        C  0.48436381  0.25221191  0.58470561    -0.19400
C427        C  0.59926221  0.27397142  0.77471215    -0.20500
C428        C  0.59968985  0.26727251  0.72213845    -0.20500
C429        C  0.39933092  0.26835928  0.77169782    -0.18900
C430        C  0.39978627  0.26144990  0.71922043    -0.20500
C431        C  0.55701157  0.27887040  0.84223522    -0.15900
C432        C  0.44068725  0.27552304  0.84028788    -0.15900
C433        C  0.44219158  0.25405595  0.65281303    -0.15900
C434        C  0.55840744  0.25792419  0.65451561    -0.15900
H435        H  0.52971166  0.27761789  0.94544212     0.17100
H436        H  0.46729231  0.27578473  0.94440919     0.17100
H437        H  0.53205624  0.25277657  0.55061263     0.17100
H438        H  0.46961603  0.25059439  0.54972562     0.17100
H439        H  0.62002647  0.27714667  0.79928773     0.15300
H440        H  0.62081252  0.26464435  0.69826411     0.15300
H441        H  0.37820194  0.27047879  0.79572428     0.15300
H442        H  0.37908807  0.25759995  0.69486361     0.15300
H443        H  0.49874674  0.28216191  0.78545684     0.28600
H444        H  0.50023312  0.25509233  0.70965869     0.28600
C445        C  0.33610175  0.22287259  0.97818033     0.88900
C446        C  0.35625210  0.23436127  0.93324198    -0.51300
C447        C  0.37194786  0.25782321  0.94635013     0.11900
C448        C  0.36575711  0.26794584  0.50295155     0.22800
C449        C  0.35935595  0.21930738  0.52483679    -0.52000
C450        C  0.37484817  0.24309336  0.53754465     0.12000
C451        C  0.31377344  0.24654613  0.49438464    -0.51600
C452        C  0.32931786  0.27009386  0.50760646     0.12500
H453        H  0.35900149  0.22417846  0.89522921     0.17000
H454        H  0.37849576  0.28715640  0.51356605     0.02800
H455        H  0.36333262  0.19993915  0.54544604     0.17300
H456        H  0.28808158  0.24463672  0.49662334     0.17100
C457        C  0.66653698  0.23212217  0.98090448     0.88900
C458        C  0.68701681  0.25669667  0.49688488    -0.51300
C459        C  0.66967874  0.27958346  0.51007528     0.11900
C460        C  0.63343275  0.27595036  0.50543815     0.22800
C461        C  0.64388126  0.22771512  0.52763907    -0.52000
C462        C  0.62658874  0.25083369  0.54021100     0.12000
C463        C  0.64522950  0.24266089  0.93594828    -0.51600
C464        C  0.62768435  0.26544063  0.94891622     0.12500
H465        H  0.71281967  0.25578797  0.49938602     0.17000
H466        H  0.61922851  0.29461086  0.51602108     0.02800
H467        H  0.64155011  0.20825487  0.54838212     0.17300
H468        H  0.64300112  0.23221820  0.89811881     0.17100
N469        N  0.00053055  0.27575225  0.92311869    -0.34200
N470        N  0.04965190  0.26135571  0.00092921    -0.54700
N471        N  0.00041120  0.25189872  0.57987410    -0.34200
N472        N  0.95131489  0.26697969  0.00294342    -0.54700
C473        C  0.02613156  0.27335899  0.89096668     0.29400
C474        C  0.97426801  0.27603187  0.89190076     0.29400
C475        C  0.02657230  0.24936660  0.61097163     0.29400
C476        C  0.97467496  0.25215187  0.61193518     0.29400
C477        C  0.06879118  0.26617331  0.95927244     0.38000
C478        C  0.06888436  0.25505436  0.54218956     0.38000
C479        C  0.93215100  0.27348342  0.96174930     0.38000
C480        C  0.93214270  0.26247653  0.54474191     0.38000
C481        C  0.01602503  0.27309699  0.83872555    -0.19500
C482        C  0.98341682  0.27476054  0.83930643    -0.19500
C483        C  0.01723924  0.24731241  0.66334405    -0.19400
C484        C  0.98461679  0.24905405  0.66394485    -0.19400
C485        C  0.10040900  0.26312050  0.97431873    -0.20500
C486        C  0.10046010  0.25607512  0.52670003    -0.20500
C487        C  0.90060391  0.27347349  0.97771677    -0.20500
C488        C  0.90060424  0.26650610  0.53015138    -0.20500
C489        C  0.05839355  0.27104261  0.90690163    -0.15900
C490        C  0.94219288  0.27697382  0.90894364    -0.15900
C491        C  0.94242832  0.25517861  0.59616711    -0.15900
C492        C  0.05869650  0.24904368  0.59405507    -0.15900
H493        H  0.03058048  0.27135369  0.80367491     0.17100
H494        H  0.96817509  0.27454985  0.80475713     0.17100
H495        H  0.03236278  0.24517056  0.69781814     0.17100
H496        H  0.96994001  0.24850821  0.69895377     0.17100
H497        H  0.12131654  0.26527622  0.94991442     0.15300
H498        H  0.12141449  0.25213775  0.55060256     0.15300
H499        H  0.87966063  0.27748479  0.95382652     0.15300
H500        H  0.87970279  0.26448549  0.55461580     0.15300
H501        H  0.00104974  0.27876380  0.96368778     0.28600
H502        H  0.00003088  0.25157284  0.53898245     0.28600
C503        C  0.16710734  0.22257052  0.76892928     0.88900
C504        C  0.14586755  0.23326237  0.81362492    -0.51300
C505        C  0.12796705  0.25574034  0.80005980     0.11900
C506        C  0.13320025  0.26579365  0.74329044     0.22800
C507        C  0.14429179  0.21750141  0.72229245    -0.52000
C508        C  0.12658977  0.24032408  0.70912637     0.12000
C509        C  0.18711259  0.24728275  0.75229102    -0.51600
C510        C  0.16930739  0.26984555  0.73859087     0.12500
H511        H  0.14409854  0.22323693  0.85185505     0.17000
H512        H  0.11866087  0.28420863  0.73228954     0.02800
H513        H  0.14223806  0.19786350  0.70194853     0.17300
H514        H  0.21291791  0.24672646  0.74997328     0.17100
C515        C  0.83442532  0.23090180  0.76990651     0.88900
C516        C  0.81355322  0.25543288  0.75298563    -0.51300
C517        C  0.83054346  0.27817709  0.73978988     0.11900
C518        C  0.86681904  0.27442567  0.74519298     0.22800
C519        C  0.85755741  0.22606271  0.72378604    -0.52000
C520        C  0.87448822  0.24902588  0.71107164     0.12000
C521        C  0.85509560  0.24169096  0.81509447    -0.51600
C522        C  0.87221161  0.26432803  0.80206340     0.12500
H523        H  0.78777205  0.25466592  0.75031549     0.17000
H524        H  0.88073166  0.29296764  0.73460568     0.02800
H525        H  0.86041981  0.20644342  0.70350397     0.17300
H526        H  0.85717844  0.23155715  0.85324274     0.17100
N527        N  0.00018681  0.47425233  0.92385037    -0.34200
N528        N  0.04951712  0.48514310  0.50263982    -0.54700
N529        N  0.00034471  0.49740762  0.58111197    -0.34200
N530        N  0.95100489  0.48596738  0.00318443    -0.54700
C531        C  0.02607986  0.47486811  0.89207429     0.29400
C532        C  0.97410708  0.47547419  0.89225430     0.29400
C533        C  0.02640441  0.49784532  0.61267653     0.29400
C534        C  0.97447513  0.49849783  0.61283813     0.29400
C535        C  0.06868146  0.47987935  0.96101529     0.38000
C536        C  0.06875087  0.49052996  0.54419415     0.38000
C537        C  0.93175646  0.48113327  0.96142245     0.38000
C538        C  0.93186377  0.49183127  0.54460764     0.38000
C539        C  0.01626290  0.47538100  0.83969343    -0.19500
C540        C  0.98360532  0.47578053  0.83980043    -0.19500
C541        C  0.01693646  0.49982999  0.66503430    -0.19400
C542        C  0.98427274  0.50025590  0.66512817    -0.19400
C543        C  0.10030854  0.48166053  0.97642647    -0.20500
C544        C  0.10034619  0.48841261  0.52897348    -0.20500
C545        C  0.90016229  0.48354543  0.97669240    -0.20500
C546        C  0.90024240  0.49032345  0.52924022    -0.20500
C547        C  0.05836494  0.47566685  0.90842126    -0.15900
C548        C  0.94192447  0.47693582  0.90878066    -0.15900
C549        C  0.94223082  0.49805172  0.59641524    -0.15900
C550        C  0.05854072  0.49665896  0.59608219    -0.15900
H551        H  0.03106998  0.47603597  0.80484307     0.17100
H552        H  0.96858729  0.47678007  0.80502141     0.17100
H553        H  0.03197880  0.50061047  0.69978396     0.17100
H554        H  0.96944951  0.50140251  0.69994481     0.17100
H555        H  0.12124403  0.47887170  0.95216352     0.15300
H556        H  0.12130634  0.49145709  0.55315111     0.15300
H557        H  0.87916507  0.48123603  0.95228773     0.15300
H558        H  0.87935305  0.49386816  0.55327732     0.15300
H559        H  0.00026306  0.47163193  0.96449330     0.28600
H560        H  0.00027195  0.49847406  0.54028471     0.28600
C561        C  0.16769736  0.02040284  0.76921484     0.88900
C562        C  0.18751836  0.49517707  0.75260949    -0.51300
C563        C  0.16956651  0.47290911  0.73958627     0.11900
C564        C  0.13349063  0.47775223  0.74505056     0.22800
C565        C  0.14460036  0.02566923  0.72298626    -0.52000
C566        C  0.12674432  0.00316125  0.71063659     0.12000
C567        C  0.14672137  0.01047295  0.81453708    -0.51600
C568        C  0.12862052  0.48829835  0.80174985     0.12500
H569        H  0.21329269  0.49523495  0.74951426     0.17000
H570        H  0.11880248  0.45960187  0.73459227     0.02800
H571        H  0.14246066  0.04521778  0.70231304     0.17300
H572        H  0.14514155  0.02088841  0.85249497     0.17100
C573        C  0.83474608  0.02738183  0.76982294     0.88900
C574        C  0.85544036  0.01617427  0.81493237    -0.51300
C575        C  0.87227157  0.49302877  0.80190025     0.11900
C576        C  0.86658046  0.48288737  0.74517437     0.22800
C577        C  0.85781372  0.03141757  0.72346567    -0.52000
C578        C  0.87444291  0.00792957  0.71082886     0.12000
C579        C  0.81356347  0.00335064  0.75319187    -0.51600
C580        C  0.83027716  0.48010984  0.73998736     0.12500
H581        H  0.85773134  0.02636060  0.85301194     0.17000
H582        H  0.88025157  0.46392819  0.73461482     0.02800
H583        H  0.86084775  0.05087451  0.70299410     0.17300
H584        H  0.78779378  0.00482276  0.75056796     0.17100
O585        O  0.74443160  0.15806002  0.94459177    -0.72000
O586        O  0.79320724  0.10182333  0.87406236    -0.72000
O587        O  0.79285354  0.15768870  0.87407178    -0.72100
O588        O  0.74488675  0.10215696  0.94469127    -0.72100
O589        O  0.70987030  0.10222619  0.87813492    -0.72100
O590        O  0.75786699  0.15777869  0.80747483    -0.72000
O591        O  0.75819341  0.10190864  0.80751438    -0.72000
O592        O  0.70947728  0.15808875  0.87796103    -0.72100
Ni593      Ni  0.77011202  0.12992971  0.91173822     1.25400
Ni594      Ni  0.73258626  0.13000390  0.84040236     1.25400
C595        C  0.71897178  0.16725995  0.92266991     0.90200
C596        C  0.78365994  0.09269314  0.82932580     0.90100
C597        C  0.78321425  0.16678762  0.82930997     0.90200
C598        C  0.71955514  0.09312443  0.92288105     0.90300
O599        O  0.75740641  0.35183770  0.69399263    -0.72000
O600        O  0.70792035  0.40794567  0.62442167    -0.72000
O601        O  0.70807155  0.35211516  0.62437485    -0.72100
O602        O  0.75721968  0.40768291  0.69388866    -0.72100
O603        O  0.79156241  0.40735935  0.62681154    -0.72100
O604        O  0.74238930  0.35183947  0.55726457    -0.72000
O605        O  0.74223451  0.40768125  0.55730347    -0.72000
O606        O  0.79171200  0.35150543  0.62686497    -0.72100
Ni607      Ni  0.73142764  0.37989711  0.66157589     1.25400
Ni608      Ni  0.76820839  0.37957605  0.58965037     1.25400
C609        C  0.78267559  0.34256837  0.67185524     0.90200
C610        C  0.71699085  0.41696386  0.57952781     0.90100
C611        C  0.71713546  0.34301202  0.57934358     0.90200
C612        C  0.78242758  0.41655688  0.67172916     0.90300
O613        O  0.26149127  0.09261310  0.94072486    -0.72000
O614        O  0.21178480  0.14902473  0.87251693    -0.72000
O615        O  0.21207272  0.09315271  0.87171457    -0.72100
O616        O  0.26123609  0.14849284  0.94163730    -0.72100
O617        O  0.29527174  0.14846593  0.87413333    -0.72100
O618        O  0.24604834  0.09308459  0.80412596    -0.72000
O619        O  0.24578243  0.14905050  0.80497168    -0.72000
O620        O  0.29555418  0.09253180  0.87326331    -0.72100
Ni621      Ni  0.23542930  0.12082198  0.90904912     1.25400
Ni622      Ni  0.27189904  0.12079013  0.83669823     1.25400
C623        C  0.28659280  0.08332707  0.91811275     0.90200
C624        C  0.22064384  0.15825122  0.82764177     0.90100
C625        C  0.22102575  0.08405515  0.82663032     0.90200
C626        C  0.28627960  0.15752546  0.91924487     0.90300
O627        O  0.24026524  0.39864457  0.69047590    -0.72000
O628        O  0.28868467  0.34228561  0.62011536    -0.72000
O629        O  0.28852137  0.39806979  0.61981661    -0.72100
O630        O  0.24029908  0.34285018  0.69073832    -0.72100
O631        O  0.20511792  0.34299617  0.62442915    -0.72100
O632        O  0.25340032  0.39831604  0.55341406    -0.72000
O633        O  0.25359269  0.34242572  0.55368662    -0.72000
O634        O  0.20505750  0.39889469  0.62421278    -0.72100
Ni635      Ni  0.26569150  0.37044770  0.65764435     1.25400
Ni636      Ni  0.22801180  0.37065077  0.58653886     1.25400
C637        C  0.21477123  0.40795870  0.66890547     0.90200
C638        C  0.27916899  0.33325852  0.57532771     0.90100
C639        C  0.27884341  0.40721697  0.57512072     0.90200
C640        C  0.21481083  0.33394690  0.66920790     0.90300
C641        C  0.80061795  0.43758698  0.69753426    -0.10800
C642        C  0.81491347  0.45621368  0.71806335    -0.12400
C643        C  0.81672290  0.05218031  0.78544196    -0.10800
C644        C  0.80167962  0.07126120  0.80361297    -0.12400
C645        C  0.18353568  0.44839597  0.71663328    -0.10800
C646        C  0.19700898  0.42936852  0.69520933    -0.12400
C647        C  0.18700116  0.04425900  0.78417697    -0.10800
C648        C  0.20274224  0.06290354  0.80141934    -0.12400
C649        C  0.08291097  0.50070313  0.63589875    -0.10800
C650        C  0.10313756  0.50294005  0.66939850    -0.12400
C651        C  0.10371406  0.47908769  0.83627823    -0.10800
C652        C  0.08269375  0.47557650  0.86780501    -0.12400
C653        C  0.89666952  0.48227243  0.83642384    -0.10800
C654        C  0.91750859  0.47772150  0.86814886    -0.12400
C655        C  0.91802029  0.50313238  0.63615438    -0.10800
C656        C  0.89793831  0.00642068  0.66957085    -0.12400
C657        C  0.81614305  0.20664821  0.78550134    -0.10800
C658        C  0.80104791  0.18791365  0.80359179    -0.12400
C659        C  0.81538915  0.30247869  0.71808573    -0.10800
C660        C  0.80102903  0.32135288  0.69770980    -0.12400
C661        C  0.18348994  0.29412485  0.71640916    -0.10800
C662        C  0.19705590  0.31294664  0.69549722    -0.12400
C663        C  0.20209212  0.17966899  0.80268567    -0.10800
C664        C  0.18630105  0.19844546  0.78491266    -0.12400
C665        C  0.08310359  0.24379272  0.63364156    -0.10800
C666        C  0.10323093  0.24088748  0.66732099    -0.12400
C667        C  0.10326931  0.26600300  0.83430382    -0.10800
C668        C  0.08247819  0.27028951  0.86601647    -0.12400
C669        C  0.89667420  0.27438229  0.83674913    -0.10800
C670        C  0.91758339  0.27786697  0.86866446    -0.12400
C671        C  0.91818279  0.25170452  0.63629001    -0.10800
C672        C  0.89807611  0.24959910  0.66989541    -0.12400
C673        C  0.69878438  0.32218303  0.55323833    -0.10800
C674        C  0.68451260  0.30365662  0.53232017    -0.12400
C675        C  0.68529118  0.20766034  0.96565253    -0.10800
C676        C  0.70080993  0.18869730  0.94811621    -0.12400
C677        C  0.31912371  0.19781531  0.96258876    -0.10800
C678        C  0.30437131  0.17874019  0.94464966    -0.12400
C679        C  0.31269309  0.29377505  0.52886871    -0.10800
C680        C  0.29756379  0.31222671  0.54908650    -0.12400
C681        C  0.39571876  0.26906756  0.91200345    -0.10800
C682        C  0.41629515  0.27413822  0.88056279    -0.12400
C683        C  0.41823010  0.24860020  0.61273601    -0.10800
C684        C  0.39829724  0.24503085  0.57906162    -0.12400
C685        C  0.60249429  0.27526581  0.91478236    -0.10800
C686        C  0.58131770  0.27899566  0.88319981    -0.12400
C687        C  0.60320296  0.25176587  0.58160227    -0.10800
C688        C  0.58300443  0.25415312  0.61502139    -0.12400
C689        C  0.70177602  0.07201158  0.94869811    -0.10800
C690        C  0.68658024  0.05343362  0.96710396    -0.12400
C691        C  0.68463700  0.45757848  0.53436002    -0.10800
C692        C  0.69876342  0.43838245  0.55406406    -0.12400
C693        C  0.29681895  0.42824094  0.54938049    -0.10800
C694        C  0.31252756  0.44666851  0.53159885    -0.12400
C695        C  0.31810662  0.04229961  0.96362734    -0.10800
C696        C  0.30465824  0.06167266  0.94323697    -0.12400
C697        C  0.39755098  0.01016703  0.58290864    -0.10800
C698        C  0.41865043  0.01262907  0.61488500    -0.12400
C699        C  0.41735159  0.48647518  0.88285084    -0.10800
C700        C  0.39712616  0.48534180  0.91637648    -0.12400
C701        C  0.58230319  0.98534507  0.88582105    -0.10800
C702        C  0.60331494  0.48800584  0.91785280    -0.12400
C703        C  0.60396332  0.01299197  0.58427073    -0.10800
C704        C  0.58375227  0.01168774  0.61784263    -0.12400
N705        N  0.50101732  0.01112025  0.17201554    -0.34200
N706        N  0.45133220  0.00051404  0.24982962    -0.54700
N707        N  0.50002276  0.48708520  0.32872844    -0.34200
N708        N  0.54971325  0.49765540  0.25090755    -0.54700
C709        C  0.47515893  0.01152034  0.13987979     0.29400
C710        C  0.52709271  0.51043099  0.14070086     0.29400
C711        C  0.47395898  0.98775247  0.36003874     0.29400
C712        C  0.52586681  0.48661917  0.36085248     0.29400
C713        C  0.43236117  0.00609327  0.20789264     0.38000
C714        C  0.43188726  0.99503587  0.29081658     0.38000
C715        C  0.56917812  0.50302970  0.20989013     0.38000
C716        C  0.56866074  0.49193984  0.29281222     0.38000
C717        C  0.48499647  0.01193666  0.08761694    -0.19500
C718        C  0.51764997  0.51128365  0.08813559    -0.19500
C719        C  0.48338808  0.98684398  0.41261213    -0.19400
C720        C  0.51603891  0.48616205  0.41312762    -0.19400
C721        C  0.40066434  0.00427771  0.22249705    -0.20500
C722        C  0.40037466  0.99727024  0.27487540    -0.20500
C723        C  0.60068324  0.50059911  0.22579231    -0.20500
C724        C  0.60036546  0.49357529  0.27817080    -0.20500
C725        C  0.44287965  0.01106057  0.15578418    -0.15900
C726        C  0.55922674  0.50886642  0.15765440    -0.15900
C727        C  0.55812423  0.48697562  0.34491454    -0.15900
C728        C  0.44184873  0.98926533  0.34305674    -0.15900
H729        H  0.47019908  0.01219842  0.05253757     0.17100
H730        H  0.53269497  0.51093622  0.05353356     0.17100
H731        H  0.46834028  0.98712697  0.44721296     0.17100
H732        H  0.53083572  0.48581369  0.44820680     0.17100
H733        H  0.37983441  0.00733542  0.19785758     0.15300
H734        H  0.37930672  0.99427780  0.29853819     0.15300
H735        H  0.62176386  0.50345236  0.20209445     0.15300
H736        H  0.62118144  0.49036441  0.30277737     0.15300
H737        H  0.50091898  0.01304431  0.21277779     0.28600
H738        H  0.50012132  0.48517714  0.28794825     0.28600
C739        C  0.33228018  0.97005863  0.01618583     0.88900
C740        C  0.31308465  0.99555644  0.99906720    -0.51300
C741        C  0.33160534  0.51738472  0.48580952     0.11900
C742        C  0.36758933  0.51182413  0.49143740     0.22800
C743        C  0.35511497  0.96401717  0.47021110    -0.52000
C744        C  0.37355627  0.98604640  0.45747968     0.12000
C745        C  0.35359181  0.97984244  0.06142537    -0.51600
C746        C  0.37226261  0.50153097  0.04836786     0.12500
H747        H  0.28728757  0.99605419  0.99618973     0.17000
H748        H  0.38275553  0.52959592  0.48079173     0.02800
H749        H  0.35669420  0.94427786  0.44999916     0.17300
H750        H  0.35499847  0.96962493  0.09956601     0.17100
C751        C  0.66768968  0.52964827  0.48319697     0.88900
C752        C  0.64630591  0.51938110  0.43850664    -0.51300
C753        C  0.62844980  0.99726547  0.45200094     0.11900
C754        C  0.63392141  0.98706717  0.00879191     0.22800
C755        C  0.64509944  0.53516338  0.02974837    -0.52000
C756        C  0.62744530  0.51270962  0.04293570     0.12000
C757        C  0.68781407  0.50460017  0.99976920    -0.51600
C758        C  0.67011242  0.98233466  0.01337712     0.12500
H759        H  0.64428596  0.52953685  0.40036952     0.17000
H760        H  0.61941175  0.96893570  0.01974780     0.02800
H761        H  0.64303260  0.55489313  0.04988454     0.17300
H762        H  0.71363926  0.50465886  0.00177055     0.17100
N763        N  0.49878906  0.77939884  0.32603223    -0.34200
N764        N  0.54870625  0.76943567  0.24778751    -0.54700
N765        N  0.50027039  0.75585814  0.16885264    -0.34200
N766        N  0.45031499  0.76646697  0.24610269    -0.54700
C767        C  0.52469455  0.77908586  0.35816257     0.29400
C768        C  0.47277199  0.77756471  0.35727571     0.29400
C769        C  0.52634937  0.75585045  0.13759272     0.29400
C770        C  0.47446938  0.75404528  0.13682970     0.29400
C771        C  0.56755429  0.77505884  0.28971018     0.38000
C772        C  0.56824463  0.76446287  0.20648388     0.38000
C773        C  0.43079121  0.77118358  0.28748137     0.38000
C774        C  0.43149405  0.76027982  0.20439775     0.38000
C775        C  0.51488911  0.77818354  0.41040120    -0.19500
C776        C  0.48226355  0.77722111  0.40984912    -0.19500
C777        C  0.51699133  0.75336606  0.08517556    -0.19400
C778        C  0.48436879  0.75221103  0.08470343    -0.19400
C779        C  0.59926497  0.77396618  0.27471589    -0.20500
C780        C  0.59969320  0.76726744  0.22214214    -0.20500
C781        C  0.39933324  0.76836259  0.27169110    -0.18900
C782        C  0.39978913  0.76145276  0.21921389    -0.20500
C783        C  0.55701326  0.77886683  0.34223665    -0.15900
C784        C  0.44068864  0.77552504  0.34028330    -0.15900
C785        C  0.44219527  0.75405676  0.15280857    -0.15900
C786        C  0.55841143  0.75792098  0.15451716    -0.15900
H787        H  0.52971137  0.77761642  0.44544215     0.17100
H788        H  0.46729187  0.77578635  0.44440605     0.17100
H789        H  0.53206186  0.75277432  0.05061278     0.17100
H790        H  0.46962158  0.75059405  0.04972269     0.17100
H791        H  0.62002895  0.77714086  0.29929241     0.15300
H792        H  0.62081616  0.76463882  0.19826871     0.15300
H793        H  0.37820398  0.77048312  0.29571658     0.15300
H794        H  0.37909113  0.75760349  0.19485617     0.15300
H795        H  0.49874968  0.78216049  0.28545560     0.28600
H796        H  0.50023586  0.75509083  0.20965745     0.28600
C797        C  0.33610456  0.72287494  0.47817541     0.88900
C798        C  0.35625321  0.73436520  0.43323648    -0.51300
C799        C  0.37194865  0.75782720  0.44634530     0.11900
C800        C  0.36575922  0.76794845  0.00294816     0.22800
C801        C  0.35936026  0.71930927  0.02482982    -0.52000
C802        C  0.37485206  0.74309537  0.03753861     0.12000
C803        C  0.31377599  0.74654761  0.99438367    -0.51600
C804        C  0.32931999  0.77009545  0.00760634     0.12500
H805        H  0.35900208  0.72418319  0.39522281     0.17000
H806        H  0.37849755  0.78715909  0.01356321     0.02800
H807        H  0.36333799  0.69994070  0.04543736     0.17300
H808        H  0.28808427  0.74463747  0.99662444     0.17100
C809        C  0.66654073  0.73212096  0.48090542     0.88900
C810        C  0.68701991  0.75669622  0.99688362    -0.51300
C811        C  0.66968118  0.77958264  0.01007405     0.11900
C812        C  0.63343528  0.77594844  0.00543899     0.22800
C813        C  0.64388613  0.72771376  0.02764128    -0.52000
C814        C  0.62659292  0.75083193  0.04021310     0.12000
C815        C  0.64523196  0.74265855  0.43594987    -0.51600
C816        C  0.62768622  0.76543793  0.44891784     0.12500
H817        H  0.71282285  0.75578831  0.99938342     0.17000
H818        H  0.61923051  0.79460863  0.01602195     0.02800
H819        H  0.64155606  0.70825363  0.04838512     0.17300
H820        H  0.64300333  0.73221543  0.39812090     0.17100
N821        N  0.00052947  0.77575171  0.42311876    -0.34200
N822        N  0.04965085  0.76135340  0.50092824    -0.54700
N823        N  0.00041033  0.75189838  0.07987448    -0.34200
N824        N  0.95131400  0.76698093  0.50294470    -0.54700
C825        C  0.02613017  0.77335779  0.39096625     0.29400
C826        C  0.97426668  0.77603212  0.39190139     0.29400
C827        C  0.02657159  0.74936518  0.11097135     0.29400
C828        C  0.97467432  0.75215221  0.11193612     0.29400
C829        C  0.06879001  0.76617058  0.45927115     0.38000
C830        C  0.06888336  0.75505172  0.04218825     0.38000
C831        C  0.93215007  0.77348511  0.46175091     0.38000
C832        C  0.93214195  0.76247853  0.04474377     0.38000
C833        C  0.01602324  0.77309621  0.33872532    -0.19500
C834        C  0.98341507  0.77476066  0.33930683    -0.19500
C835        C  0.01723882  0.74731089  0.16334390    -0.19400
C836        C  0.98461642  0.74905367  0.16394548    -0.19400
C837        C  0.10040784  0.76311691  0.47431687    -0.20500
C838        C  0.10045903  0.75607163  0.02669810    -0.20500
C839        C  0.90060310  0.77347622  0.47771907    -0.20500
C840        C  0.90060352  0.76650907  0.03015388    -0.20500
C841        C  0.05839219  0.77104036  0.40690058    -0.15900
C842        C  0.94219170  0.77697496  0.40894496    -0.15900
C843        C  0.94242768  0.75518034  0.09616877    -0.15900
C844        C  0.05869568  0.74904148  0.09405406    -0.15900
H845        H  0.03057842  0.77135260  0.30367441     0.17100
H846        H  0.96817307  0.77455052  0.30475783     0.17100
H847        H  0.03236251  0.74516822  0.19781762     0.17100
H848        H  0.96993991  0.74850811  0.19895473     0.17100
H849        H  0.12131528  0.76527203  0.44991212     0.15300
H850        H  0.12141350  0.75213382  0.05060014     0.15300
H851        H  0.87965979  0.77748804  0.45382921     0.15300
H852        H  0.87970214  0.76448923  0.05461874     0.15300
H853        H  0.00104910  0.77876311  0.46368792     0.28600
H854        H  0.00002965  0.75157295  0.03898293     0.28600
C855        C  0.16710689  0.72256891  0.26892784     0.88900
C856        C  0.14586647  0.73326004  0.31362328    -0.51300
C857        C  0.12796555  0.75573781  0.30005837     0.11900
C858        C  0.13319897  0.76579167  0.24328944     0.22800
C859        C  0.14429185  0.71749974  0.22229034    -0.52000
C860        C  0.12658937  0.74032219  0.20912454     0.12000
C861        C  0.18711166  0.74728166  0.25229080    -0.51600
C862        C  0.16930605  0.76984426  0.23859100     0.12500
H863        H  0.14409742  0.72323431  0.35185311     0.17000
H864        H  0.11865925  0.78420650  0.23228873     0.02800
H865        H  0.14223870  0.69786192  0.20194594     0.17300
H866        H  0.21291701  0.74672592  0.24997386     0.17100
C867        C  0.83442442  0.73090354  0.26990698     0.88900
C868        C  0.81355195  0.75543449  0.25298646    -0.51300
C869        C  0.83054188  0.77817904  0.23979151     0.11900
C870        C  0.86681751  0.77442803  0.24519498     0.22800
C871        C  0.85755680  0.72606513  0.22378670    -0.52000
C872        C  0.87448728  0.74902859  0.21107314     0.12000
C873        C  0.85509434  0.74169267  0.31509548    -0.51600
C874        C  0.87221001  0.76433006  0.30206520     0.12500
H875        H  0.78777082  0.75466717  0.25031591     0.17000
H876        H  0.88072990  0.79297023  0.23460831     0.02800
H877        H  0.86041967  0.70644601  0.20350420     0.17300
H878        H  0.85717724  0.73155858  0.35324347     0.17100
N879        N  0.00018553  0.97425328  0.42385021    -0.34200
N880        N  0.04951551  0.98514487  0.00263927    -0.54700
N881        N  0.00034278  0.99740824  0.08111207    -0.34200
N882        N  0.95100329  0.98596718  0.50318467    -0.54700
C883        C  0.02607850  0.97486980  0.39207395     0.29400
C884        C  0.97410573  0.97547502  0.39225424     0.29400
C885        C  0.02640252  0.99784623  0.11267632     0.29400
C886        C  0.97447323  0.99849816  0.11283809     0.29400
C887        C  0.06867996  0.97988159  0.46101469     0.38000
C888        C  0.06874912  0.99053180  0.04419369     0.38000
C889        C  0.93175505  0.98113235  0.46142280     0.38000
C890        C  0.93186199  0.99183024  0.04460802     0.38000
C891        C  0.01626147  0.97538310  0.33969318    -0.19500
C892        C  0.98360389  0.97578208  0.33980035    -0.19500
C893        C  0.01693462  0.99983089  0.16503420    -0.19400
C894        C  0.98427089  0.00025645  0.16512814    -0.19400
C895        C  0.10030696  0.98166336  0.47642579    -0.20500
C896        C  0.10034446  0.98841513  0.02897296    -0.20500
C897        C  0.90016082  0.98354323  0.47669302    -0.20500
C898        C  0.90024068  0.99032113  0.02924088    -0.20500
C899        C  0.05836354  0.97566883  0.40842078    -0.15900
C900        C  0.94192309  0.97693571  0.40878079    -0.15900
C901        C  0.94222887  0.99805138  0.09641546    -0.15900
C902        C  0.05853884  0.99666013  0.09608192    -0.15900
H903        H  0.03106849  0.97603869  0.30484280     0.17100
H904        H  0.96858579  0.97678164  0.30502142     0.17100
H905        H  0.03197699  0.00061158  0.19978382     0.17100
H906        H  0.96944766  0.00140290  0.19994477     0.17100
H907        H  0.12124252  0.97887494  0.45216288     0.15300
H908        H  0.12130460  0.99145980  0.05315054     0.15300
H909        H  0.87916369  0.98123302  0.45228848     0.15300
H910        H  0.87935121  0.99386497  0.05327817     0.15300
H911        H  0.00026186  0.97163234  0.46449286     0.28600
H912        H  0.00026999  0.99847460  0.04028410     0.28600
C913        C  0.16769844  0.52040256  0.26921706     0.88900
C914        C  0.18751704  0.99517711  0.25260800    -0.51300
C915        C  0.16956489  0.97290921  0.23958553     0.11900
C916        C  0.13348906  0.97775267  0.24504984     0.22800
C917        C  0.14460144  0.52566909  0.22298839    -0.52000
C918        C  0.12674566  0.50316103  0.21063797     0.12000
C919        C  0.14672239  0.51047216  0.31453882    -0.51600
C920        C  0.12861919  0.98829926  0.30174885     0.12500
H921        H  0.21329138  0.99523473  0.24951270     0.17000
H922        H  0.11880066  0.95960238  0.23459210     0.02800
H923        H  0.14246165  0.54521773  0.20231552     0.17300
H924        H  0.14514242  0.52088729  0.35249702     0.17100
C925        C  0.83474716  0.52738081  0.26982137     0.88900
C926        C  0.85544139  0.51617367  0.31493125    -0.51300
C927        C  0.87226998  0.99302912  0.30190101     0.11900
C928        C  0.86657837  0.98288796  0.24517505     0.22800
C929        C  0.85781496  0.53141681  0.22346452    -0.52000
C930        C  0.87444464  0.50792905  0.21082815     0.12000
C931        C  0.81356508  0.50334929  0.25319009    -0.51600
C932        C  0.83027497  0.98011106  0.23998843     0.12500
H933        H  0.85773202  0.52636014  0.35301076     0.17000
H934        H  0.88024899  0.96392857  0.23461505     0.02800
H935        H  0.86084875  0.55087375  0.20299285     0.17300
H936        H  0.78779537  0.50482103  0.25056577     0.17100
O937        O  0.74443520  0.65805875  0.44459156    -0.72000
O938        O  0.79320957  0.60182254  0.37405931    -0.72000
O939        O  0.79285585  0.65768800  0.37406946    -0.72100
O940        O  0.74489040  0.60215566  0.44469035    -0.72100
O941        O  0.70987280  0.60222516  0.37813569    -0.72100
O942        O  0.75786821  0.65777817  0.30747410    -0.72000
O943        O  0.75819472  0.60190803  0.30751281    -0.72000
O944        O  0.70947978  0.65808776  0.37796238    -0.72100
Ni945      Ni  0.77011503  0.62992868  0.41173648     1.25400
Ni946      Ni  0.73258811  0.63000310  0.34040234     1.25400
C947        C  0.71897512  0.66725882  0.42267084     0.90200
C948        C  0.78366148  0.59269238  0.32932325     0.90100
C949        C  0.78321567  0.66678728  0.32930841     0.90200
C950        C  0.71955837  0.59312323  0.42288130     0.90300
O951        O  0.75740427  0.85183924  0.19399160    -0.72000
O952        O  0.70791883  0.90794647  0.12441738    -0.72000
O953        O  0.70807086  0.85211602  0.12437112    -0.72100
O954        O  0.75721683  0.90768450  0.19388704    -0.72100
O955        O  0.79156079  0.90736105  0.12681170    -0.72100
O956        O  0.74238988  0.85184051  0.05726261    -0.72000
O957        O  0.74223426  0.90768231  0.05730100    -0.72000
O958        O  0.79171112  0.85150711  0.12686575    -0.72100
Ni959      Ni  0.73142579  0.87989831  0.16157315     1.25400
Ni960      Ni  0.76820789  0.87957743  0.08964957     1.25400
C961        C  0.78267400  0.84257008  0.17185565     0.90200
C962        C  0.71699003  0.91696468  0.07952395     0.90100
C963        C  0.71713579  0.84301283  0.07934044     0.90200
C964        C  0.78242507  0.91655860  0.17172877     0.90300
O965        O  0.26149518  0.59261458  0.44072464    -0.72000
O966        O  0.21178721  0.64902496  0.37251628    -0.72000
O967        O  0.21207546  0.59315290  0.37171668    -0.72100
O968        O  0.26123961  0.64849441  0.44163435    -0.72100
O969        O  0.29527433  0.64846666  0.37412912    -0.72100
O970        O  0.24604992  0.59308413  0.30412648    -0.72000
O971        O  0.24578374  0.64905002  0.30496949    -0.72000
O972        O  0.29555696  0.59253244  0.37326147    -0.72100
Ni973      Ni  0.23543251  0.62082287  0.40904877     1.25400
Ni974      Ni  0.27190108  0.62079022  0.33669627     1.25400
C975        C  0.28659630  0.58332825  0.41811171     0.90200
C976        C  0.22064541  0.65825085  0.32764022     0.90100
C977        C  0.22102769  0.58405488  0.32663230     0.90200
C978        C  0.28628277  0.65752687  0.41924055     0.90300
O979        O  0.24026360  0.89864418  0.19047882    -0.72000
O980        O  0.28868433  0.84228507  0.12012085    -0.72000
O981        O  0.28852050  0.89806924  0.11982068    -0.72100
O982        O  0.24029767  0.84284979  0.19074234    -0.72100
O983        O  0.20511716  0.84299542  0.12443222    -0.72100
O984        O  0.25340017  0.89831485  0.05341708    -0.72000
O985        O  0.25359295  0.84242459  0.05369125    -0.72000
O986        O  0.20505664  0.89889391  0.12421456    -0.72100
Ni987      Ni  0.26569039  0.87044724  0.15764853     1.25400
Ni988      Ni  0.22801144  0.87064977  0.08654197     1.25400
C989        C  0.21476982  0.90795817  0.16890741     0.90200
C990        C  0.27916927  0.83325779  0.07533297     0.90100
C991        C  0.27884304  0.90721598  0.07512413     0.90200
C992        C  0.21480959  0.83394641  0.16921142     0.90300
C993        C  0.80061496  0.93758874  0.19753470    -0.10800
C994        C  0.81491064  0.95621526  0.21806414    -0.12400
C995        C  0.81672364  0.55217915  0.28543971    -0.10800
C996        C  0.80168051  0.57126022  0.30361019    -0.12400
C997        C  0.18353379  0.94839576  0.21663335    -0.10800
C998        C  0.19700723  0.92936813  0.19521024    -0.12400
C999        C  0.18700219  0.54425873  0.28418013    -0.10800
C1000       C  0.20274356  0.56290315  0.30142254    -0.12400
C1001       C  0.08290909  0.00070390  0.13589849    -0.10800
C1002       C  0.10313592  0.00294046  0.16939784    -0.12400
C1003       C  0.10371264  0.97908918  0.33627759    -0.10800
C1004       C  0.08269232  0.97557839  0.36780451    -0.12400
C1005       C  0.89666798  0.98227244  0.33642423    -0.10800
C1006       C  0.91750714  0.97772138  0.36814907    -0.12400
C1007       C  0.91801828  0.00313216  0.13615457    -0.10800
C1008       C  0.89794020  0.50642052  0.16957049    -0.12400
C1009       C  0.81614265  0.70664942  0.28550078    -0.10800
C1010       C  0.80104833  0.68791411  0.30359047    -0.12400
C1011       C  0.81538733  0.80248061  0.21808751    -0.10800
C1012       C  0.80102723  0.82135478  0.19771131    -0.12400
C1013       C  0.18348835  0.79412411  0.21641118    -0.10800
C1014       C  0.19705445  0.81294616  0.19550039    -0.12400
C1015       C  0.20209294  0.67966807  0.30268385    -0.10800
C1016       C  0.18630118  0.69844415  0.28491100    -0.12400
C1017       C  0.08310298  0.74379034  0.13364008    -0.10800
C1018       C  0.10323054  0.74088531  0.16731918    -0.12400
C1019       C  0.10326759  0.76600006  0.33430234    -0.10800
C1020       C  0.08247655  0.77028671  0.36601503    -0.12400
C1021       C  0.89667258  0.77438417  0.33675113    -0.10800
C1022       C  0.91758194  0.77786854  0.36866626    -0.12400
C1023       C  0.91818225  0.75170724  0.13629216    -0.10800
C1024       C  0.89807546  0.74960221  0.16989743    -0.12400
C1025       C  0.69878561  0.82218343  0.05323476    -0.10800
C1026       C  0.68451444  0.80365646  0.03231734    -0.12400
C1027       C  0.68529539  0.70765942  0.46565385    -0.10800
C1028       C  0.70081399  0.68869630  0.44811778    -0.12400
C1029       C  0.31912689  0.69781747  0.46258291    -0.10800
C1030       C  0.30437469  0.67874212  0.44464387    -0.12400
C1031       C  0.31269489  0.79377567  0.02887219    -0.10800
C1032       C  0.29756498  0.81222649  0.04909172    -0.12400
C1033       C  0.39571917  0.76907194  0.41199821    -0.10800
C1034       C  0.41629572  0.77414178  0.38055725    -0.12400
C1035       C  0.41823420  0.74860169  0.11273026    -0.10800
C1036       C  0.39830154  0.74503265  0.07905525    -0.12400
C1037       C  0.60249542  0.77526233  0.41478475    -0.10800
C1038       C  0.58131873  0.77899187  0.38320229    -0.12400
C1039       C  0.60320748  0.75176361  0.08160474    -0.10800
C1040       C  0.58300886  0.75415030  0.11502374    -0.12400
C1041       C  0.70177947  0.57201038  0.44869913    -0.10800
C1042       C  0.68658346  0.55343255  0.46710513    -0.12400
C1043       C  0.68463594  0.95757903  0.03435595    -0.10800
C1044       C  0.69876272  0.93838304  0.05405938    -0.12400
C1045       C  0.29681885  0.92823963  0.04938338    -0.10800
C1046       C  0.31252715  0.94666709  0.03160051    -0.12400
C1047       C  0.31810990  0.54230093  0.46362668    -0.10800
C1048       C  0.30466189  0.56167400  0.44323588    -0.12400
C1049       C  0.39755093  0.51016777  0.08291337    -0.10800
C1050       C  0.41865040  0.51262970  0.11488973    -0.12400
C1051       C  0.41734782  0.98647482  0.38284631    -0.10800
C1052       C  0.39712244  0.98534107  0.41637197    -0.12400
C1053       C  0.58230712  0.48534418  0.38581853    -0.10800
C1054       C  0.60331104  0.98800689  0.41785520    -0.12400
C1055       C  0.60396352  0.51299170  0.08426807    -0.10800
C1056       C  0.58375241  0.51168745  0.11783998    -0.12400
N1057       N  0.50101732  0.01112024  0.67201551    -0.34200
N1058       N  0.45133217  0.00051406  0.74982959    -0.54700
N1059       N  0.50002276  0.48708520  0.82872851    -0.34200
N1060       N  0.54971327  0.49765539  0.75090748    -0.54700
C1061       C  0.47515892  0.01152033  0.63987976     0.29400
C1062       C  0.52709273  0.51043098  0.64070084     0.29400
C1063       C  0.47395896  0.98775246  0.86003863     0.29400
C1064       C  0.52586680  0.48661917  0.86085237     0.29400
C1065       C  0.43236115  0.00609341  0.70789264     0.38000
C1066       C  0.43188722  0.99503590  0.79081655     0.38000
C1067       C  0.56917814  0.50302969  0.70989007     0.38000
C1068       C  0.56866078  0.49193983  0.79281216     0.38000
C1069       C  0.48499646  0.01193664  0.58761693    -0.19500
C1070       C  0.51765002  0.51128364  0.58813557    -0.19500
C1071       C  0.48338806  0.98684391  0.91261205    -0.19400
C1072       C  0.51603888  0.48616204  0.91312755    -0.19400
C1073       C  0.40066432  0.00427790  0.72249706    -0.20500
C1074       C  0.40037462  0.99727037  0.77487539    -0.20500
C1075       C  0.60068326  0.50059909  0.72579224    -0.20500
C1076       C  0.60036551  0.49357528  0.77817074    -0.20500
C1077       C  0.44287963  0.01106059  0.65578414    -0.15900
C1078       C  0.55922675  0.50886641  0.65765435    -0.15900
C1079       C  0.55812425  0.48697560  0.84491451    -0.15900
C1080       C  0.44184869  0.98926532  0.84305671    -0.15900
H1081       H  0.47019904  0.01219841  0.55253759     0.17100
H1082       H  0.53269501  0.51093621  0.55353352     0.17100
H1083       H  0.46834027  0.98712687  0.94721288     0.17100
H1084       H  0.53083566  0.48581366  0.94820673     0.17100
H1085       H  0.37983440  0.00733556  0.69785756     0.15300
H1086       H  0.37930666  0.99427790  0.79853814     0.15300
H1087       H  0.62176385  0.50345237  0.70209431     0.15300
H1088       H  0.62118150  0.49036440  0.80277731     0.15300
H1089       H  0.50091896  0.01304429  0.71277770     0.28600
H1090       H  0.50012132  0.48517711  0.78794783     0.28600
C1091       C  0.33228016  0.97005860  0.51618580     0.88900
C1092       C  0.31308465  0.99555643  0.49906722    -0.51300
C1093       C  0.33160537  0.51738471  0.98580948     0.11900
C1094       C  0.36758935  0.51182411  0.99143748     0.22800
C1095       C  0.35511498  0.96401717  0.97021110    -0.52000
C1096       C  0.37355629  0.98604640  0.95747972     0.12000
C1097       C  0.35359178  0.97984241  0.56142532    -0.51600
C1098       C  0.37226267  0.50153094  0.54836776     0.12500
H1099       H  0.28728759  0.99605419  0.49618980     0.17000
H1100       H  0.38275556  0.52959589  0.98079180     0.02800
H1101       H  0.35669411  0.94427788  0.94999904     0.17300
H1102       H  0.35499844  0.96962491  0.59956594     0.17100
C1103       C  0.66768967  0.52964827  0.98319702     0.88900
C1104       C  0.64630588  0.51938109  0.93850674    -0.51300
C1105       C  0.62844979  0.99726547  0.95200096     0.11900
C1106       C  0.63392143  0.98706714  0.50879187     0.22800
C1107       C  0.64509942  0.53516338  0.52974828    -0.52000
C1108       C  0.62744527  0.51270963  0.54293558     0.12000
C1109       C  0.68781406  0.50460017  0.49976924    -0.51600
C1110       C  0.67011243  0.98233466  0.51337701     0.12500
H1111       H  0.64428596  0.52953681  0.90036959     0.17000
H1112       H  0.61941181  0.96893564  0.51974779     0.02800
H1113       H  0.64303258  0.55489313  0.54988443     0.17300
H1114       H  0.71363924  0.50465889  0.50177076     0.17100
N1115       N  0.49878907  0.77939883  0.82603220    -0.34200
N1116       N  0.54870627  0.76943571  0.74778753    -0.54700
N1117       N  0.50027044  0.75585814  0.66885265    -0.34200
N1118       N  0.45031502  0.76646697  0.74610268    -0.54700
C1119       C  0.52469453  0.77908585  0.85816254     0.29400
C1120       C  0.47277199  0.77756470  0.85727567     0.29400
C1121       C  0.52634940  0.75585047  0.63759271     0.29400
C1122       C  0.47446942  0.75404526  0.63682970     0.29400
C1123       C  0.56755428  0.77505885  0.78971020     0.38000
C1124       C  0.56824465  0.76446304  0.70648384     0.38000
C1125       C  0.43079121  0.77118356  0.78748138     0.38000
C1126       C  0.43149411  0.76027991  0.70439775     0.38000
C1127       C  0.51488906  0.77818353  0.91040114    -0.19500
C1128       C  0.48226351  0.77722110  0.90984907    -0.19500
C1129       C  0.51699134  0.75336604  0.58517558    -0.19400
C1130       C  0.48436882  0.75221101  0.58470346    -0.19400
C1131       C  0.59926494  0.77396628  0.77471587    -0.20500
C1132       C  0.59969320  0.76726763  0.72214210    -0.20500
C1133       C  0.39933322  0.76836259  0.77169116    -0.18900
C1134       C  0.39978918  0.76145283  0.71921392    -0.20500
C1135       C  0.55701324  0.77886682  0.84223667    -0.15900
C1136       C  0.44068865  0.77552503  0.84028327    -0.15900
C1137       C  0.44219532  0.75405678  0.65280858    -0.15900
C1138       C  0.55841145  0.75792111  0.65451712    -0.15900
H1139       H  0.52971129  0.77761641  0.94544211     0.17100
H1140       H  0.46729184  0.77578633  0.94440600     0.17100
H1141       H  0.53206181  0.75277432  0.55061276     0.17100
H1142       H  0.46962163  0.75059404  0.54972271     0.17100
H1143       H  0.62002892  0.77714093  0.79929241     0.15300
H1144       H  0.62081620  0.76463902  0.69826876     0.15300
H1145       H  0.37820393  0.77048309  0.79571658     0.15300
H1146       H  0.37909122  0.75760354  0.69485615     0.15300
H1147       H  0.49874970  0.78216049  0.78545559     0.28600
H1148       H  0.50023589  0.75509086  0.70965736     0.28600
C1149       C  0.33610454  0.72287497  0.97817550     0.88900
C1150       C  0.35625320  0.73436519  0.93323657    -0.51300
C1151       C  0.37194866  0.75782719  0.94634530     0.11900
C1152       C  0.36575923  0.76794842  0.50294821     0.22800
C1153       C  0.35936029  0.71930926  0.52482977    -0.52000
C1154       C  0.37485210  0.74309534  0.53753862     0.12000
C1155       C  0.31377598  0.74654759  0.49438354    -0.51600
C1156       C  0.32931998  0.77009540  0.50760639     0.12500
H1157       H  0.35900204  0.72418312  0.89522294     0.17000
H1158       H  0.37849755  0.78715905  0.51356337     0.02800
H1159       H  0.36333799  0.69994069  0.54543735     0.17300
H1160       H  0.28808425  0.74463748  0.49662404     0.17100
C1161       C  0.66654071  0.73212096  0.98090537     0.88900
C1162       C  0.68701992  0.75669622  0.49688368    -0.51300
C1163       C  0.66968118  0.77958264  0.51007404     0.11900
C1164       C  0.63343528  0.77594843  0.50543900     0.22800
C1165       C  0.64388612  0.72771376  0.52764129    -0.52000
C1166       C  0.62659292  0.75083191  0.54021309     0.12000
C1167       C  0.64523193  0.74265854  0.93594985    -0.51600
C1168       C  0.62768620  0.76543793  0.94891783     0.12500
H1169       H  0.71282285  0.75578831  0.49938355     0.17000
H1170       H  0.61923049  0.79460861  0.51602192     0.02800
H1171       H  0.64155606  0.70825364  0.54838514     0.17300
H1172       H  0.64300329  0.73221544  0.89812086     0.17100
N1173       N  0.00052947  0.77575171  0.92311887    -0.34200
N1174       N  0.04965081  0.76135342  0.00092823    -0.54700
N1175       N  0.00041035  0.75189837  0.57987439    -0.34200
N1176       N  0.95131401  0.76698094  0.00294469    -0.54700
C1177       C  0.02613017  0.77335778  0.89096617     0.29400
C1178       C  0.97426668  0.77603211  0.89190135     0.29400
C1179       C  0.02657161  0.74936516  0.61097128     0.29400
C1180       C  0.97467435  0.75215220  0.61193603     0.29400
C1181       C  0.06878998  0.76617057  0.95927113     0.38000
C1182       C  0.06888342  0.75505169  0.54218827     0.38000
C1183       C  0.93215009  0.77348510  0.96175089     0.38000
C1184       C  0.93214197  0.76247852  0.54474378     0.38000
C1185       C  0.01602322  0.77309620  0.83872530    -0.19500
C1186       C  0.98341506  0.77476065  0.83930687    -0.19500
C1187       C  0.01723882  0.74731088  0.66334381    -0.19400
C1188       C  0.98461644  0.74905366  0.66394539    -0.19400
C1189       C  0.10040778  0.76311690  0.97431685    -0.20500
C1190       C  0.10045911  0.75607161  0.52669812    -0.20500
C1191       C  0.90060312  0.77347622  0.97771903    -0.20500
C1192       C  0.90060354  0.76650907  0.53015393    -0.20500
C1193       C  0.05839216  0.77104034  0.90690056    -0.15900
C1194       C  0.94219172  0.77697495  0.90894498    -0.15900
C1195       C  0.94242770  0.75518028  0.59616875    -0.15900
C1196       C  0.05869570  0.74904146  0.59405406    -0.15900
H1197       H  0.03057833  0.77135260  0.80367431     0.17100
H1198       H  0.96817307  0.77455050  0.80475787     0.17100
H1199       H  0.03236249  0.74516821  0.69781754     0.17100
H1200       H  0.96993994  0.74850809  0.69895465     0.17100
H1201       H  0.12131524  0.76527200  0.94991214     0.15300
H1202       H  0.12141357  0.75213377  0.55060018     0.15300
H1203       H  0.87965983  0.77748809  0.95382915     0.15300
H1204       H  0.87970219  0.76448919  0.55461884     0.15300
H1205       H  0.00104909  0.77876304  0.96368746     0.28600
H1206       H  0.00002971  0.75157291  0.53898281     0.28600
C1207       C  0.16710689  0.72256893  0.76892791     0.88900
C1208       C  0.14586647  0.73326009  0.81362337    -0.51300
C1209       C  0.12796554  0.75573784  0.80005837     0.11900
C1210       C  0.13319896  0.76579167  0.74328943     0.22800
C1211       C  0.14429183  0.71749975  0.72229044    -0.52000
C1212       C  0.12658933  0.74032219  0.70912464     0.12000
C1213       C  0.18711168  0.74728167  0.75229086    -0.51600
C1214       C  0.16930606  0.76984425  0.73859096     0.12500
H1215       H  0.14409746  0.72323442  0.85185326     0.17000
H1216       H  0.11865924  0.78420649  0.73228866     0.02800
H1217       H  0.14223867  0.69786194  0.70194601     0.17300
H1218       H  0.21291704  0.74672593  0.74997402     0.17100
C1219       C  0.83442442  0.73090354  0.76990700     0.88900
C1220       C  0.81355197  0.75543448  0.75298640    -0.51300
C1221       C  0.83054189  0.77817902  0.73979143     0.11900
C1222       C  0.86681754  0.77442802  0.74519492     0.22800
C1223       C  0.85755682  0.72606509  0.72378674    -0.52000
C1224       C  0.87448730  0.74902855  0.71107314     0.12000
C1225       C  0.85509436  0.74169268  0.81509547    -0.51600
C1226       C  0.87221007  0.76433005  0.80206514     0.12500
H1227       H  0.78777083  0.75466716  0.75031581     0.17000
H1228       H  0.88072994  0.79297021  0.73460820     0.02800
H1229       H  0.86041969  0.70644596  0.70350427     0.17300
H1230       H  0.85717725  0.73155862  0.85324347     0.17100
N1231       N  0.00018552  0.97425327  0.92385012    -0.34200
N1232       N  0.04951548  0.98514486  0.50263926    -0.54700
N1233       N  0.00034280  0.99740824  0.58111199    -0.34200
N1234       N  0.95100328  0.98596705  0.00318466    -0.54700
C1235       C  0.02607850  0.97486979  0.89207388     0.29400
C1236       C  0.97410571  0.97547500  0.89225415     0.29400
C1237       C  0.02640254  0.99784622  0.61267626     0.29400
C1238       C  0.97447326  0.99849815  0.61283804     0.29400
C1239       C  0.06867997  0.97988159  0.96101471     0.38000
C1240       C  0.06874910  0.99053180  0.54419365     0.38000
C1241       C  0.93175503  0.98113229  0.96142275     0.38000
C1242       C  0.93186200  0.99183032  0.54460803     0.38000
C1243       C  0.01626147  0.97538309  0.83969309    -0.19500
C1244       C  0.98360387  0.97578206  0.83980025    -0.19500
C1245       C  0.01693465  0.99983088  0.66503413    -0.19400
C1246       C  0.98427093  0.00025644  0.66512806    -0.19400
C1247       C  0.10030695  0.98166336  0.97642587    -0.20500
C1248       C  0.10034445  0.98841512  0.52897289    -0.20500
C1249       C  0.90016079  0.98354318  0.97669299    -0.20500
C1250       C  0.90024071  0.99032121  0.52924088    -0.20500
C1251       C  0.05836356  0.97566883  0.90842076    -0.15900
C1252       C  0.94192308  0.97693569  0.90878073    -0.15900
C1253       C  0.94222889  0.99805137  0.59641549    -0.15900
C1254       C  0.05853885  0.99666012  0.59608187    -0.15900
H1255       H  0.03106848  0.97603868  0.80484271     0.17100
H1256       H  0.96858577  0.97678162  0.80502133     0.17100
H1257       H  0.03197699  0.00061157  0.69978378     0.17100
H1258       H  0.96944771  0.00140288  0.69994469     0.17100
H1259       H  0.12124251  0.97887493  0.95216297     0.15300
H1260       H  0.12130456  0.99145981  0.55315052     0.15300
H1261       H  0.87916366  0.98123301  0.95228839     0.15300
H1262       H  0.87935123  0.99386504  0.55327810     0.15300
H1263       H  0.00026187  0.97163236  0.96449278     0.28600
H1264       H  0.00027000  0.99847461  0.54028407     0.28600
C1265       C  0.16769842  0.52040256  0.76921698     0.88900
C1266       C  0.18751705  0.99517713  0.75260799    -0.51300
C1267       C  0.16956493  0.97290921  0.73958551     0.11900
C1268       C  0.13348908  0.97775264  0.74504978     0.22800
C1269       C  0.14460141  0.52566907  0.72298832    -0.52000
C1270       C  0.12674564  0.50316102  0.71063794     0.12000
C1271       C  0.14672240  0.51047215  0.81453879    -0.51600
C1272       C  0.12861920  0.98829923  0.80174883     0.12500
H1273       H  0.21329139  0.99523477  0.74951271     0.17000
H1274       H  0.11880072  0.95960232  0.73459198     0.02800
H1275       H  0.14246162  0.54521771  0.70231542     0.17300
H1276       H  0.14514241  0.52088734  0.85249693     0.17100
C1277       C  0.83474715  0.52738081  0.76982136     0.88900
C1278       C  0.85544141  0.51617369  0.81493123    -0.51300
C1279       C  0.87227000  0.99302914  0.80190095     0.11900
C1280       C  0.86657841  0.98288797  0.74517502     0.22800
C1281       C  0.85781491  0.53141677  0.72346444    -0.52000
C1282       C  0.87444462  0.50792902  0.71082811     0.12000
C1283       C  0.81356508  0.50334925  0.75319025    -0.51600
C1284       C  0.83027501  0.98011102  0.73998845     0.12500
H1285       H  0.85773200  0.52636016  0.85301074     0.17000
H1286       H  0.88024909  0.96392862  0.73461505     0.02800
H1287       H  0.86084868  0.55087370  0.70299271     0.17300
H1288       H  0.78779537  0.50482097  0.75056604     0.17100
O1289       O  0.74443516  0.65805872  0.94459157    -0.72000
O1290       O  0.79320963  0.60182254  0.87405937    -0.72000
O1291       O  0.79285581  0.65768799  0.87406940    -0.72100
O1292       O  0.74489038  0.60215566  0.94469037    -0.72100
O1293       O  0.70987277  0.60222522  0.87813573    -0.72100
O1294       O  0.75786820  0.65777814  0.80747400    -0.72000
O1295       O  0.75819472  0.60190800  0.80751296    -0.72000
O1296       O  0.70947979  0.65808778  0.87796232    -0.72100
Ni1297     Ni  0.77011502  0.62992867  0.91173650     1.25400
Ni1298     Ni  0.73258810  0.63000311  0.84040234     1.25400
C1299       C  0.71897509  0.66725881  0.92267081     0.90200
C1300       C  0.78366151  0.59269237  0.82932333     0.90100
C1301       C  0.78321564  0.66678726  0.82930832     0.90200
C1302       C  0.71955834  0.59312325  0.92288129     0.90300
O1303       O  0.75740422  0.85183922  0.69399156    -0.72000
O1304       O  0.70791881  0.90794647  0.62441729    -0.72000
O1305       O  0.70807084  0.85211602  0.62437107    -0.72100
O1306       O  0.75721683  0.90768450  0.69388701    -0.72100
O1307       O  0.79156077  0.90736104  0.62681165    -0.72100
O1308       O  0.74238985  0.85184049  0.55726255    -0.72000
O1309       O  0.74223424  0.90768229  0.55730090    -0.72000
O1310       O  0.79171110  0.85150712  0.62686576    -0.72100
Ni1311     Ni  0.73142577  0.87989831  0.66157309     1.25400
Ni1312     Ni  0.76820787  0.87957742  0.58964952     1.25400
C1313       C  0.78267396  0.84257007  0.67185563     0.90200
C1314       C  0.71699001  0.91696466  0.57952385     0.90100
C1315       C  0.71713576  0.84301281  0.57934042     0.90200
C1316       C  0.78242508  0.91655858  0.67172875     0.90300
O1317       O  0.26149519  0.59261457  0.94072461    -0.72000
O1318       O  0.21178722  0.64902498  0.87251638    -0.72000
O1319       O  0.21207548  0.59315291  0.87171662    -0.72100
O1320       O  0.26123971  0.64849437  0.94163433    -0.72100
O1321       O  0.29527435  0.64846673  0.87412899    -0.72100
O1322       O  0.24604991  0.59308416  0.80412640    -0.72000
O1323       O  0.24578370  0.64905005  0.80496954    -0.72000
O1324       O  0.29555698  0.59253252  0.87326148    -0.72100
Ni1325     Ni  0.23543256  0.62082287  0.90904875     1.25400
Ni1326     Ni  0.27190108  0.62079027  0.83669623     1.25400
C1327       C  0.28659632  0.58332828  0.91811169     0.90200
C1328       C  0.22064538  0.65825086  0.82764028     0.90100
C1329       C  0.22102768  0.58405490  0.82663222     0.90200
C1330       C  0.28628283  0.65752689  0.91924047     0.90300
O1331       O  0.24026357  0.89864416  0.69047886    -0.72000
O1332       O  0.28868432  0.84228505  0.62012094    -0.72000
O1333       O  0.28852047  0.89806927  0.61982083    -0.72100
O1334       O  0.24029767  0.84284976  0.69074235    -0.72100
O1335       O  0.20511715  0.84299545  0.62443225    -0.72100
O1336       O  0.25340017  0.89831483  0.55341719    -0.72000
O1337       O  0.25359297  0.84242459  0.55369131    -0.72000
O1338       O  0.20505661  0.89889392  0.62421459    -0.72100
Ni1339     Ni  0.26569038  0.87044723  0.65764862     1.25400
Ni1340     Ni  0.22801144  0.87064977  0.58654203     1.25400
C1341       C  0.21476981  0.90795815  0.66890744     0.90200
C1342       C  0.27916930  0.83325779  0.57533302     0.90100
C1343       C  0.27884302  0.90721598  0.57512425     0.90200
C1344       C  0.21480959  0.83394642  0.66921141     0.90300
C1345       C  0.80061504  0.93758870  0.69753468    -0.10800
C1346       C  0.81491072  0.95621523  0.71806410    -0.12400
C1347       C  0.81672362  0.55217915  0.78543963    -0.10800
C1348       C  0.80168050  0.57126022  0.80361017    -0.12400
C1349       C  0.18353389  0.94839574  0.71663356    -0.10800
C1350       C  0.19700725  0.92936810  0.69521037    -0.12400
C1351       C  0.18700217  0.54425873  0.78418003    -0.10800
C1352       C  0.20274354  0.56290315  0.80142245    -0.12400
C1353       C  0.08290910  0.00070389  0.63589843    -0.10800
C1354       C  0.10313593  0.00294045  0.66939778    -0.12400
C1355       C  0.10371269  0.97908915  0.83627762    -0.10800
C1356       C  0.08269236  0.97557837  0.86780453    -0.12400
C1357       C  0.89666797  0.98227243  0.83642417    -0.10800
C1358       C  0.91750712  0.97772137  0.86814902    -0.12400
C1359       C  0.91801832  0.00313213  0.63615463    -0.10800
C1360       C  0.89794016  0.50642050  0.66957043    -0.12400
C1361       C  0.81614265  0.70664944  0.78550087    -0.10800
C1362       C  0.80104831  0.68791411  0.80359044    -0.12400
C1363       C  0.81538732  0.80248059  0.71808742    -0.10800
C1364       C  0.80102719  0.82135475  0.69771128    -0.12400
C1365       C  0.18348835  0.79412410  0.71641107    -0.10800
C1366       C  0.19705444  0.81294617  0.69550033    -0.12400
C1367       C  0.20209289  0.67966804  0.80268385    -0.10800
C1368       C  0.18630115  0.69844414  0.78491099    -0.12400
C1369       C  0.08310295  0.74379034  0.63364017    -0.10800
C1370       C  0.10323047  0.74088529  0.66731935    -0.12400
C1371       C  0.10326754  0.76600007  0.83430226    -0.10800
C1372       C  0.08247651  0.77028670  0.86601496    -0.12400
C1373       C  0.89667264  0.77438415  0.83675110    -0.10800
C1374       C  0.91758197  0.77786853  0.86866626    -0.12400
C1375       C  0.91818229  0.75170712  0.63629215    -0.10800
C1376       C  0.89807547  0.74960214  0.66989741    -0.12400
C1377       C  0.69878559  0.82218340  0.55323481    -0.10800
C1378       C  0.68451441  0.80365645  0.53231734    -0.12400
C1379       C  0.68529536  0.70765942  0.96565377    -0.10800
C1380       C  0.70081396  0.68869630  0.94811770    -0.12400
C1381       C  0.31912683  0.69781752  0.96258291    -0.10800
C1382       C  0.30437470  0.67874217  0.94464376    -0.12400
C1383       C  0.31269490  0.79377567  0.52887216    -0.10800
C1384       C  0.29756505  0.81222653  0.54909168    -0.12400
C1385       C  0.39571917  0.76907190  0.91199817    -0.10800
C1386       C  0.41629574  0.77414176  0.88055723    -0.12400
C1387       C  0.41823425  0.74860167  0.61273031    -0.10800
C1388       C  0.39830159  0.74503262  0.57905529    -0.12400
C1389       C  0.60249541  0.77526232  0.91478471    -0.10800
C1390       C  0.58131871  0.77899186  0.88320230    -0.12400
C1391       C  0.60320751  0.75176360  0.58160479    -0.10800
C1392       C  0.58300888  0.75415034  0.61502375    -0.12400
C1393       C  0.70177944  0.57201037  0.94869901    -0.10800
C1394       C  0.68658343  0.55343255  0.96710506    -0.12400
C1395       C  0.68463595  0.95757903  0.53435584    -0.10800
C1396       C  0.69876270  0.93838302  0.55405928    -0.12400
C1397       C  0.29681883  0.92823961  0.54938342    -0.10800
C1398       C  0.31252711  0.94666706  0.53160046    -0.12400
C1399       C  0.31810996  0.54230093  0.96362656    -0.10800
C1400       C  0.30466192  0.56167401  0.94323582    -0.12400
C1401       C  0.39755102  0.51016775  0.58291324    -0.10800
C1402       C  0.41865044  0.51262969  0.61488969    -0.12400
C1403       C  0.41734780  0.98647482  0.88284631    -0.10800
C1404       C  0.39712243  0.98534108  0.91637199    -0.12400
C1405       C  0.58230714  0.48534417  0.88581848    -0.10800
C1406       C  0.60331102  0.98800689  0.91785522    -0.12400
C1407       C  0.60396350  0.51299169  0.58426796    -0.10800
C1408       C  0.58375240  0.51168744  0.61783989    -0.12400
loop_ 
_geom_bond_atom_site_label_1 
_geom_bond_atom_site_label_2 
_geom_bond_distance 
_geom_bond_site_symmetry_2 
_ccdc_geom_bond_type 
N1           H33   1.036       .  S
N1            C5   1.356       .  A
N1          C710   1.355       .  A
N2            C9   1.352       .  A
N2           C10   1.352       .  A
N3           H34   1.037       .  S
N3            C8   1.355       .  A
N3          C711   1.355       .  A
N4           C11   1.352   1_565  A
N4           C12   1.352       .  A
C5           C13   1.388       .  A
C5           C21   1.417       .  A
C6          N705   1.355       .  A
C6           C22   1.417       .  A
C6           C14   1.388       .  A
C7          N707   1.355       .  A
C7           C15   1.388       .  A
C7           C24   1.416       .  A
C8           C23   1.417       .  A
C8           C16   1.389       .  A
C9           C21   1.415       .  A
C9           C17   1.388       .  A
C10          C24   1.414       .  A
C10          C18   1.387       .  A
C11          C19   1.387       .  A
C11          C22   1.414       .  A
C12          C20   1.388       .  A
C12          C23   1.415       .  A
C13         C718   1.373       .  A
C13          H25   1.083       .  S
C14         C717   1.373       .  A
C14          H26   1.083       .  S
C15         C720   1.373       .  A
C15          H27   1.083       .  S
C16         C719   1.373       .  A
C16          H28   1.083       .  S
C17          C18   1.370       .  A
C17          H29   1.082       .  S
C18          H30   1.082       .  S
C19          C20   1.370   1_545  A
C19          H31   1.082       .  S
C20          H32   1.082       .  S
C21        C1050   1.451       .  S
C22         C352   1.452       .  S
C23         C349   1.450       .  S
C24         C347   1.451       .  S
C35          C36   1.531   1_554  S
C35          C41   1.530       .  S
C35         C391   1.538   1_554  S
C35         C342   1.467       .  S
C36          H43   1.087       .  S
C36        C1093   1.364       .  D
C37          C38   1.540       .  S
C37        C1092   1.364   1_545  D
C37         C343   1.443       .  S
C38         C394   1.538       .  S
C38         C744   1.535   1_545  S
C38          H44   1.112       .  S
C39         C387   1.538       .  S
C39          H45   1.086       .  S
C39          C40   1.366       .  D
C40         C742   1.535       .  S
C40         C348   1.440       .  S
C41          H46   1.087       .  S
C41         C746   1.361       .  D
C42         C390   1.538   1_554  S
C42         C745   1.361   1_545  D
C42         C345   1.440       .  S
C47          C48   1.529       .  S
C47         C405   1.531       .  S
C47         C403   1.538       .  S
C47         C338   1.467       .  S
C48          H55   1.087       .  S
C48         C753   1.360   1_545  D
C49         C402   1.537       .  S
C49         C752   1.360       .  D
C49         C350   1.438       .  S
C50          C54   1.540       .  S
C50         C401   1.537   1_554  S
C50         C756   1.536       .  S
C50          H56   1.112       .  S
C51         C399   1.538   1_554  S
C51          H57   1.086       .  S
C51          C52   1.367       .  D
C52         C754   1.536   1_545  S
C52         C351   1.441       .  S
C53         C399   1.531       .  S
C53          H58   1.087   1_556  S
C53         C758   1.363   1_546  D
C54         C757   1.363   1_554  D
C54         C339   1.442       .  S
N59          H91   1.036       .  S
N59          C64   1.356       .  A
N59          C63   1.357       .  A
N60          C67   1.352       .  A
N60          C68   1.352       .  A
N61          H92   1.034       .  S
N61          C66   1.355       .  A
N61          C65   1.355       .  A
N62          C69   1.351       .  A
N62          C70   1.353       .  A
C63          C71   1.388       .  A
C63          C79   1.419       .  A
C64          C80   1.419       .  A
C64          C72   1.389       .  A
C65          C73   1.389       .  A
C65          C82   1.417       .  A
C66          C81   1.417       .  A
C66          C74   1.388       .  A
C67          C79   1.415       .  A
C67          C75   1.388       .  A
C68          C82   1.415       .  A
C68          C76   1.387       .  A
C69          C77   1.388       .  A
C69          C80   1.415       .  A
C70          C78   1.387       .  A
C70          C81   1.414       .  A
C71          C72   1.373       .  A
C71          H83   1.083       .  S
C72          H84   1.083       .  S
C73          C74   1.373       .  A
C73          H85   1.083       .  S
C74          H86   1.083       .  S
C75          C76   1.370       .  A
C75          H87   1.082       .  S
C76          H88   1.082       .  S
C77          C78   1.370       .  A
C77          H89   1.082       .  S
C78          H90   1.082       .  S
C79         C334   1.453       .  S
C80         C330   1.451       .  S
C81         C331   1.453       .  S
C82         C336   1.451       .  S
C93          C94   1.530       .  S
C93         C451   1.531       .  S
C93         C449   1.539       .  S
C93         C325   1.469       .  S
C94         H101   1.087       .  S
C94          C95   1.361       .  D
C95         C448   1.537       .  S
C95         C329   1.440       .  S
C96         C100   1.539       .  S
C96          C98   1.535       .  S
C96         C447   1.537   1_554  S
C96         H102   1.112       .  S
C97         C445   1.539   1_554  S
C97         H103   1.086       .  S
C97          C98   1.368       .  D
C98         C332   1.442       .  S
C99         C445   1.531       .  S
C99         H104   1.087       .  S
C99         C100   1.363   1_556  D
C100        C327   1.442       .  S
C105        C111   1.531       .  S
C105        C458   1.531       .  S
C105        C461   1.539       .  S
C105        C323   1.469       .  S
C106        C457   1.531       .  S
C106        H113   1.087       .  S
C106        C107   1.363   1_556  D
C107        C108   1.540       .  S
C107        C322   1.442       .  S
C108        C110   1.534       .  S
C108        C464   1.538   1_554  S
C108        H114   1.112       .  S
C109        C457   1.539   1_554  S
C109        H115   1.086       .  S
C109        C110   1.367       .  D
C110        C335   1.440       .  S
C111        H116   1.087       .  S
C111        C112   1.362       .  D
C112        C460   1.538       .  S
C112        C333   1.442       .  S
N117        H149   1.038       .  S
N117        C122   1.356   1_455  A
N117        C121   1.356       .  A
N118        C125   1.351       .  A
N118        C478   1.352       .  A
N119        H150   1.036       .  S
N119        C124   1.355   1_455  A
N119        C123   1.355       .  A
N120        C127   1.351       .  A
N120        C480   1.352       .  A
C121        C129   1.388       .  A
C121        C137   1.417       .  A
C122        C138   1.418       .  A
C122        C130   1.389       .  A
C123        C131   1.389       .  A
C123        C140   1.418       .  A
C124        C139   1.418       .  A
C124        C132   1.388       .  A
C125        C137   1.414       .  A
C125        C133   1.388       .  A
C126        N470   1.352       .  A
C126        C140   1.415       .  A
C126        C134   1.387       .  A
C127        C135   1.388       .  A
C127        C138   1.415       .  A
C128        N472   1.352       .  A
C128        C136   1.387       .  A
C128        C139   1.415       .  A
C129        C130   1.373   1_455  A
C129        H141   1.083       .  S
C130        H142   1.083       .  S
C131        C132   1.373   1_455  A
C131        H143   1.083       .  S
C132        H144   1.083       .  S
C133        C486   1.370       .  A
C133        H145   1.082       .  S
C134        C485   1.370   1_554  A
C134        H146   1.082       .  S
C135        C488   1.371       .  A
C135        H147   1.082       .  S
C136        C487   1.371   1_554  A
C136        H148   1.082       .  S
C137        C316   1.451       .  S
C138        C318   1.451       .  S
C139        C319   1.453       .  S
C140        C313   1.453       .  S
C151        C152   1.531       .  S
C151        C157   1.532       .  S
C151        C155   1.540       .  S
C151        C312   1.470       .  S
C152        H159   1.087       .  S
C152        C153   1.361       .  D
C153        C154   1.536       .  S
C153        C315   1.439       .  S
C154        C158   1.538       .  S
C154        C156   1.534       .  S
C154        H160   1.112       .  S
C155        H161   1.086       .  S
C155        C156   1.368       .  D
C156        C314   1.441       .  S
C157        H162   1.087       .  S
C157        C158   1.363       .  D
C158        C309   1.441       .  S
C163        C164   1.531       .  S
C163        C169   1.529       .  S
C163        C167   1.539       .  S
C163        C305   1.467       .  S
C164        H171   1.087       .  S
C164        C165   1.363       .  D
C165        C166   1.540       .  S
C165        C307   1.442       .  S
C166        C170   1.537       .  S
C166        C168   1.536       .  S
C166        H172   1.112       .  S
C167        H173   1.086       .  S
C167        C168   1.368       .  D
C168        C320   1.442       .  S
C169        H174   1.087       .  S
C169        C170   1.361       .  D
C170        C317   1.439       .  S
N175        H207   1.037       .  S
N175        C180   1.356   1_455  A
N175        C179   1.357       .  A
N176        C184   1.352       .  A
N176        C535   1.351   1_554  A
N177        H208   1.035       .  S
N177        C182   1.355   1_455  A
N177        C181   1.354       .  A
N178        C185   1.351       .  A
N178        C538   1.352       .  A
C179        C187   1.388       .  A
C179        C195   1.418       .  A
C180        C196   1.419       .  A
C180        C188   1.389       .  A
C181        C189   1.389       .  A
C181        C198   1.417       .  A
C182        C197   1.417       .  A
C182        C190   1.388       .  A
C183        N528   1.351       .  A
C183        C195   1.414       .  A
C183        C191   1.388       .  A
C184        C198   1.414       .  A
C184        C192   1.387       .  A
C185        C193   1.388       .  A
C185        C196   1.415       .  A
C186        N530   1.352       .  A
C186        C194   1.386       .  A
C186        C197   1.414       .  A
C187        C188   1.373   1_455  A
C187        H199   1.083       .  S
C188        H200   1.083       .  S
C189        C190   1.373   1_455  A
C189        H201   1.083       .  S
C190        H202   1.083       .  S
C191        C544   1.370       .  A
C191        H203   1.082       .  S
C192        C543   1.370   1_554  A
C192        H204   1.082       .  S
C193        C546   1.370       .  A
C193        H205   1.082       .  S
C194        C545   1.370   1_554  A
C194        H206   1.082       .  S
C195        C300   1.453       .  S
C196        C302   1.451       .  S
C197        C303   1.453       .  S
C198        C297   1.449       .  S
C209        C215   1.531       .  S
C209        C213   1.538       .  S
C209        C914   1.532   1_545  S
C209        C295   1.469       .  S
C210        C913   1.532       .  S
C210        H217   1.087       .  S
C210        C211   1.364       .  D
C211        C212   1.539       .  S
C211        C293   1.443       .  S
C212        C216   1.537       .  S
C212        C918   1.533       .  S
C212        H218   1.112       .  S
C213        H219   1.086       .  S
C213        C214   1.367       .  D
C214        C916   1.533   1_545  S
C214       C1002   1.438       .  S
C215        H220   1.087       .  S
C215        C920   1.362   1_545  D
C216        C919   1.362       .  D
C216        C299   1.442       .  S
C221        C222   1.530       .  S
C221        C227   1.532       .  S
C221        C225   1.540       .  S
C221        C291   1.469       .  S
C222        H229   1.087       .  S
C222        C927   1.361   1_545  D
C223        C224   1.536       .  S
C223        C926   1.361       .  D
C223        C301   1.439       .  S
C224        C228   1.539       .  S
C224        C930   1.534       .  S
C224        H230   1.112       .  S
C225        H231   1.086       .  S
C225        C226   1.368       .  D
C226        C928   1.534   1_545  S
C226        C304   1.442       .  S
C227        H232   1.087       .  S
C227        C932   1.363   1_545  D
C228        C931   1.363       .  D
C228        C290   1.442       .  S
O233       Ni241   1.921       .  S
O233        C243   1.280       .  A
O234       Ni241   1.920       .  S
O234        C244   1.280       .  A
O235       Ni241   1.917       .  S
O235        C245   1.280       .  A
O236       Ni241   1.917       .  S
O236        C246   1.279       .  A
O237       Ni242   1.918       .  S
O237        C246   1.280       .  A
O238       Ni242   1.918       .  S
O238        C245   1.280       .  A
O239       Ni242   1.918       .  S
O239        C244   1.279       .  A
O240       Ni242   1.918       .  S
O240        C243   1.280       .  A
Ni241      Ni242   2.394       .  S
C243        C324   1.436       .  S
C244        C292   1.436       .  S
C245        C306   1.435       .  S
C246        C337   1.434       .  S
O247       Ni255   1.919       .  S
O247        C257   1.280       .  A
O248       Ni255   1.918       .  S
O248        C258   1.280       .  A
O249       Ni255   1.920       .  S
O249        C259   1.280       .  A
O250       Ni255   1.919       .  S
O250        C260   1.280       .  A
O251       Ni256   1.919       .  S
O251        C260   1.280       .  A
O252       Ni256   1.919       .  S
O252        C259   1.280       .  A
O253       Ni256   1.920       .  S
O253        C258   1.280       .  A
O254       Ni256   1.920       .  S
O254        C257   1.280       .  A
Ni255      Ni256   2.394       .  S
C257        C308   1.436       .  S
C258        C340   1.436       .  S
C259        C321   1.437       .  S
C260        C289   1.436       .  S
O261       Ni269   1.918       .  S
O261        C271   1.280       .  A
O262       Ni269   1.919       .  S
O262        C272   1.280       .  A
O263       Ni269   1.917       .  S
O263        C273   1.280       .  A
O264       Ni269   1.918       .  S
O264        C274   1.280       .  A
O265       Ni270   1.919       .  S
O265        C274   1.280       .  A
O266       Ni270   1.920       .  S
O266        C273   1.280       .  A
O267       Ni270   1.922       .  S
O267        C272   1.280       .  A
O268       Ni270   1.921       .  S
O268        C271   1.280       .  A
Ni269      Ni270   2.393       .  S
C271        C344   1.437       .  S
C272        C311   1.438       .  S
C273        C296   1.436       .  S
C274        C326   1.436       .  S
O275       Ni283   1.917       .  S
O275        C285   1.279       .  A
O276       Ni283   1.917       .  S
O276        C286   1.279       .  A
O277       Ni283   1.916       .  S
O277        C287   1.280       .  A
O278       Ni283   1.917       .  S
O278        C288   1.279       .  A
O279       Ni284   1.919       .  S
O279        C288   1.280       .  A
O280       Ni284   1.919       .  S
O280        C287   1.280       .  A
O281       Ni284   1.922       .  S
O281        C286   1.281       .  A
O282       Ni284   1.921       .  S
O282        C285   1.281       .  A
Ni283      Ni284   2.394       .  S
C285        C294   1.437       .  S
C286        C328   1.437       .  S
C287        C341   1.434       .  S
C288        C310   1.435       .  S
C289        C290   1.206       .  T
C291        C292   1.207       .  T
C293        C294   1.207       .  T
C295        C296   1.207       .  T
C297        C298   1.205       .  T
C298        C918   1.438       .  S
C299        C300   1.207       .  T
C301        C302   1.205       .  T
C303       C1008   1.207       .  T
C304       C1007   1.207       .  T
C305        C306   1.206       .  T
C307        C308   1.206       .  T
C309        C310   1.206       .  T
C311        C312   1.208       .  T
C313        C314   1.206       .  T
C315        C316   1.205       .  T
C317        C318   1.205       .  T
C319        C320   1.207       .  T
C321        C322   1.207       .  T
C323        C324   1.207       .  T
C325        C326   1.207       .  T
C327        C328   1.207       .  T
C329        C330   1.205       .  T
C331        C332   1.207       .  T
C333        C334   1.207       .  T
C335        C336   1.206       .  T
C337        C338   1.205       .  T
C339        C340   1.206       .  T
C341        C342   1.206       .  T
C343        C344   1.207       .  T
C345        C346   1.206       .  T
C346        C725   1.451       .  S
C347        C348   1.206       .  T
C349       C1054   1.205       .  T
C350       C1053   1.205       .  T
C351        C352   1.206       .  T
N353        H385   1.036       .  S
N353       C1062   1.355       .  A
N353        C357   1.356       .  A
N354        C361   1.352       .  A
N354        C362   1.352       .  A
N355        H386   1.037       .  S
N355        C360   1.355       .  A
N355       C1063   1.355       .  A
N356        C363   1.352   1_565  A
N356        C364   1.352       .  A
C357        C365   1.388       .  A
C357        C373   1.417       .  A
C358       N1057   1.355       .  A
C358        C374   1.417       .  A
C358        C366   1.388       .  A
C359       N1059   1.355       .  A
C359        C367   1.388       .  A
C359        C376   1.416       .  A
C360        C375   1.417       .  A
C360        C368   1.389       .  A
C361        C373   1.415       .  A
C361        C369   1.388       .  A
C362        C376   1.414       .  A
C362        C370   1.387       .  A
C363        C371   1.387       .  A
C363        C374   1.414       .  A
C364        C372   1.388       .  A
C364        C375   1.415       .  A
C365       C1070   1.373       .  A
C365        H377   1.083       .  S
C366       C1069   1.373       .  A
C366        H378   1.083       .  S
C367       C1072   1.373       .  A
C367        H379   1.083       .  S
C368       C1071   1.373       .  A
C368        H380   1.083       .  S
C369        C370   1.370       .  A
C369        H381   1.082       .  S
C370        H382   1.082       .  S
C371        C372   1.370   1_545  A
C371        H383   1.082       .  S
C372        H384   1.082       .  S
C373       C1402   1.451       .  S
C374        C704   1.452       .  S
C375        C701   1.450       .  S
C376        C699   1.451       .  S
C387        C388   1.531       .  S
C387        C393   1.530       .  S
C387        C694   1.467       .  S
C388        H395   1.087       .  S
C388        C741   1.364       .  D
C389        C390   1.540       .  S
C389        C740   1.364   1_545  D
C389        C695   1.443       .  S
C390       C1096   1.535   1_545  S
C390        H396   1.112       .  S
C391        H397   1.086       .  S
C391        C392   1.366       .  D
C392       C1094   1.535       .  S
C392        C700   1.440       .  S
C393        H398   1.087       .  S
C393       C1098   1.361       .  D
C394       C1097   1.361   1_545  D
C394        C697   1.440       .  S
C399        C400   1.529       .  S
C399        C690   1.467       .  S
C400        H407   1.087       .  S
C400       C1105   1.360   1_545  D
C401       C1104   1.360       .  D
C401        C702   1.438       .  S
C402        C406   1.540       .  S
C402       C1108   1.536       .  S
C402        H408   1.112       .  S
C403        H409   1.086       .  S
C403        C404   1.367       .  D
C404       C1106   1.536   1_545  S
C404        C703   1.441       .  S
C405        H410   1.087       .  S
C405       C1110   1.363   1_545  D
C406       C1109   1.363       .  D
C406        C691   1.442       .  S
N411        H443   1.036       .  S
N411        C416   1.356       .  A
N411        C415   1.357       .  A
N412        C419   1.352       .  A
N412        C420   1.352       .  A
N413        H444   1.034       .  S
N413        C418   1.355       .  A
N413        C417   1.355       .  A
N414        C421   1.351       .  A
N414        C422   1.353       .  A
C415        C423   1.388       .  A
C415        C431   1.419       .  A
C416        C432   1.419       .  A
C416        C424   1.389       .  A
C417        C425   1.388       .  A
C417        C434   1.417       .  A
C418        C433   1.417       .  A
C418        C426   1.388       .  A
C419        C431   1.415       .  A
C419        C427   1.388       .  A
C420        C434   1.415       .  A
C420        C428   1.387       .  A
C421        C429   1.388       .  A
C421        C432   1.415       .  A
C422        C430   1.387       .  A
C422        C433   1.414       .  A
C423        C424   1.373       .  A
C423        H435   1.083       .  S
C424        H436   1.083       .  S
C425        C426   1.373       .  A
C425        H437   1.083       .  S
C426        H438   1.083       .  S
C427        C428   1.370       .  A
C427        H439   1.082       .  S
C428        H440   1.082       .  S
C429        C430   1.370       .  A
C429        H441   1.082       .  S
C430        H442   1.082       .  S
C431        C686   1.453       .  S
C432        C682   1.451       .  S
C433        C683   1.453       .  S
C434        C688   1.451       .  S
C445        C446   1.530       .  S
C445        C677   1.469       .  S
C446        H453   1.087       .  S
C446        C447   1.361       .  D
C447        C681   1.440       .  S
C448        C452   1.539       .  S
C448        C450   1.535       .  S
C448        H454   1.112       .  S
C449        H455   1.086       .  S
C449        C450   1.368       .  D
C450        C684   1.442       .  S
C451        H456   1.087       .  S
C451        C452   1.363       .  D
C452        C679   1.442       .  S
C457        C463   1.531       .  S
C457        C675   1.469       .  S
C458        H465   1.087       .  S
C458        C459   1.363       .  D
C459        C460   1.540       .  S
C459        C674   1.442       .  S
C460        C462   1.534       .  S
C460        H466   1.112       .  S
C461        H467   1.086       .  S
C461        C462   1.367       .  D
C462        C687   1.440       .  S
C463        H468   1.087       .  S
C463        C464   1.362       .  D
C464        C685   1.442       .  S
N469        H501   1.038       .  S
N469        C474   1.356   1_455  A
N469        C473   1.356       .  A
N470        C477   1.351   1_554  A
N471        H502   1.036       .  S
N471        C476   1.355   1_455  A
N471        C475   1.355       .  A
N472        C479   1.351   1_554  A
C473        C481   1.388       .  A
C473        C489   1.417       .  A
C474        C490   1.418       .  A
C474        C482   1.389       .  A
C475        C483   1.389       .  A
C475        C492   1.418       .  A
C476        C491   1.418       .  A
C476        C484   1.388       .  A
C477        C489   1.414       .  A
C477        C485   1.388       .  A
C478        C492   1.415       .  A
C478        C486   1.387       .  A
C479        C487   1.388       .  A
C479        C490   1.415       .  A
C480        C488   1.387       .  A
C480        C491   1.415       .  A
C481        C482   1.373   1_455  A
C481        H493   1.083       .  S
C482        H494   1.083       .  S
C483        C484   1.373   1_455  A
C483        H495   1.083       .  S
C484        H496   1.083       .  S
C485        H497   1.082       .  S
C486        H498   1.082       .  S
C487        H499   1.082       .  S
C488        H500   1.082       .  S
C489        C668   1.451       .  S
C490        C670   1.451       .  S
C491        C671   1.453       .  S
C492        C665   1.453       .  S
C503        C504   1.531       .  S
C503        C509   1.532       .  S
C503        C507   1.540       .  S
C503        C664   1.470       .  S
C504        H511   1.087       .  S
C504        C505   1.361       .  D
C505        C506   1.536       .  S
C505        C667   1.439       .  S
C506        C510   1.538       .  S
C506        C508   1.534       .  S
C506        H512   1.112       .  S
C507        H513   1.086       .  S
C507        C508   1.368       .  D
C508        C666   1.441       .  S
C509        H514   1.087       .  S
C509        C510   1.363       .  D
C510        C661   1.441       .  S
C515        C516   1.531       .  S
C515        C521   1.529       .  S
C515        C519   1.539       .  S
C515        C657   1.467       .  S
C516        H523   1.087       .  S
C516        C517   1.363       .  D
C517        C518   1.540       .  S
C517        C659   1.442       .  S
C518        C522   1.537       .  S
C518        C520   1.536       .  S
C518        H524   1.112       .  S
C519        H525   1.086       .  S
C519        C520   1.368       .  D
C520        C672   1.442       .  S
C521        H526   1.087       .  S
C521        C522   1.361       .  D
C522        C669   1.439       .  S
N527        H559   1.037       .  S
N527        C532   1.356   1_455  A
N527        C531   1.357       .  A
N528        C536   1.352       .  A
N529        H560   1.035       .  S
N529        C534   1.355   1_455  A
N529        C533   1.354       .  A
N530        C537   1.351   1_554  A
C531        C539   1.388       .  A
C531        C547   1.418       .  A
C532        C548   1.419       .  A
C532        C540   1.389       .  A
C533        C541   1.389       .  A
C533        C550   1.417       .  A
C534        C549   1.417       .  A
C534        C542   1.388       .  A
C535        C547   1.414       .  A
C535        C543   1.388       .  A
C536        C550   1.414       .  A
C536        C544   1.387       .  A
C537        C545   1.388       .  A
C537        C548   1.415       .  A
C538        C546   1.386       .  A
C538        C549   1.414       .  A
C539        C540   1.373   1_455  A
C539        H551   1.083       .  S
C540        H552   1.083       .  S
C541        C542   1.373   1_455  A
C541        H553   1.083       .  S
C542        H554   1.083       .  S
C543        H555   1.082       .  S
C544        H556   1.082       .  S
C545        H557   1.082       .  S
C546        H558   1.082       .  S
C547        C652   1.453       .  S
C548        C654   1.451       .  S
C549        C655   1.453       .  S
C550        C649   1.449       .  S
C561       C1266   1.532   1_545  S
C561        C567   1.531       .  S
C561        C565   1.538       .  S
C561        C647   1.469       .  S
C562       C1265   1.532       .  S
C562        H569   1.087       .  S
C562        C563   1.364       .  D
C563        C564   1.539       .  S
C563        C645   1.443       .  S
C564        C568   1.537       .  S
C564       C1270   1.533       .  S
C564        H570   1.112       .  S
C565        H571   1.086       .  S
C565        C566   1.367       .  D
C566       C1268   1.533   1_545  S
C566       C1354   1.438       .  S
C567        H572   1.087       .  S
C567       C1272   1.362   1_545  D
C568       C1271   1.362       .  D
C568        C651   1.442       .  S
C573        C574   1.530       .  S
C573        C579   1.532       .  S
C573        C577   1.540       .  S
C573        C643   1.469       .  S
C574        H581   1.087       .  S
C574       C1279   1.361   1_545  D
C575        C576   1.536       .  S
C575       C1278   1.361       .  D
C575        C653   1.439       .  S
C576        C580   1.539       .  S
C576       C1282   1.534       .  S
C576        H582   1.112       .  S
C577        H583   1.086       .  S
C577        C578   1.368       .  D
C578       C1280   1.534   1_545  S
C578        C656   1.442       .  S
C579        H584   1.087       .  S
C579       C1284   1.363   1_545  D
C580       C1283   1.363       .  D
C580        C642   1.442       .  S
O585       Ni593   1.921       .  S
O585        C595   1.280       .  A
O586       Ni593   1.920       .  S
O586        C596   1.280       .  A
O587       Ni593   1.917       .  S
O587        C597   1.280       .  A
O588       Ni593   1.917       .  S
O588        C598   1.279       .  A
O589       Ni594   1.918       .  S
O589        C598   1.280       .  A
O590       Ni594   1.918       .  S
O590        C597   1.280       .  A
O591       Ni594   1.918       .  S
O591        C596   1.279       .  A
O592       Ni594   1.918       .  S
O592        C595   1.280       .  A
Ni593      Ni594   2.394       .  S
C595        C676   1.436       .  S
C596        C644   1.436       .  S
C597        C658   1.435       .  S
C598        C689   1.434       .  S
O599       Ni607   1.919       .  S
O599        C609   1.280       .  A
O600       Ni607   1.918       .  S
O600        C610   1.280       .  A
O601       Ni607   1.920       .  S
O601        C611   1.280       .  A
O602       Ni607   1.919       .  S
O602        C612   1.280       .  A
O603       Ni608   1.919       .  S
O603        C612   1.280       .  A
O604       Ni608   1.919       .  S
O604        C611   1.280       .  A
O605       Ni608   1.920       .  S
O605        C610   1.280       .  A
O606       Ni608   1.920       .  S
O606        C609   1.280       .  A
Ni607      Ni608   2.394       .  S
C609        C660   1.436       .  S
C610        C692   1.436       .  S
C611        C673   1.437       .  S
C612        C641   1.436       .  S
O613       Ni621   1.918       .  S
O613        C623   1.280       .  A
O614       Ni621   1.919       .  S
O614        C624   1.280       .  A
O615       Ni621   1.917       .  S
O615        C625   1.280       .  A
O616       Ni621   1.918       .  S
O616        C626   1.280       .  A
O617       Ni622   1.919       .  S
O617        C626   1.280       .  A
O618       Ni622   1.920       .  S
O618        C625   1.280       .  A
O619       Ni622   1.922       .  S
O619        C624   1.280       .  A
O620       Ni622   1.921       .  S
O620        C623   1.280       .  A
Ni621      Ni622   2.393       .  S
C623        C696   1.437       .  S
C624        C663   1.438       .  S
C625        C648   1.436       .  S
C626        C678   1.436       .  S
O627       Ni635   1.917       .  S
O627        C637   1.279       .  A
O628       Ni635   1.917       .  S
O628        C638   1.279       .  A
O629       Ni635   1.916       .  S
O629        C639   1.280       .  A
O630       Ni635   1.917       .  S
O630        C640   1.279       .  A
O631       Ni636   1.919       .  S
O631        C640   1.280       .  A
O632       Ni636   1.919       .  S
O632        C639   1.280       .  A
O633       Ni636   1.922       .  S
O633        C638   1.281       .  A
O634       Ni636   1.921       .  S
O634        C637   1.281       .  A
Ni635      Ni636   2.394       .  S
C637        C646   1.437       .  S
C638        C680   1.437       .  S
C639        C693   1.434       .  S
C640        C662   1.435       .  S
C641        C642   1.206       .  T
C643        C644   1.207       .  T
C645        C646   1.207       .  T
C647        C648   1.207       .  T
C649        C650   1.205       .  T
C650       C1270   1.438       .  S
C651        C652   1.207       .  T
C653        C654   1.205       .  T
C655       C1360   1.207       .  T
C656       C1359   1.207       .  T
C657        C658   1.206       .  T
C659        C660   1.206       .  T
C661        C662   1.206       .  T
C663        C664   1.208       .  T
C665        C666   1.206       .  T
C667        C668   1.205       .  T
C669        C670   1.205       .  T
C671        C672   1.207       .  T
C673        C674   1.207       .  T
C675        C676   1.207       .  T
C677        C678   1.207       .  T
C679        C680   1.207       .  T
C681        C682   1.205       .  T
C683        C684   1.207       .  T
C685        C686   1.207       .  T
C687        C688   1.206       .  T
C689        C690   1.205       .  T
C691        C692   1.206       .  T
C693        C694   1.206       .  T
C695        C696   1.207       .  T
C697        C698   1.206       .  T
C698       C1077   1.451       .  S
C699        C700   1.206       .  T
C701       C1406   1.205       .  T
C702       C1405   1.205       .  T
C703        C704   1.206       .  T
N705        H737   1.036       .  S
N705        C709   1.356       .  A
N706        C713   1.352       .  A
N706        C714   1.352   1_545  A
N707        H738   1.037       .  S
N707        C712   1.355       .  A
N708        C715   1.352       .  A
N708        C716   1.352       .  A
C709        C717   1.388       .  A
C709        C725   1.417       .  A
C710        C726   1.417       .  A
C710        C718   1.388       .  A
C711        C719   1.388       .  A
C711        C728   1.416       .  A
C712        C727   1.417       .  A
C712        C720   1.389       .  A
C713        C725   1.415       .  A
C713        C721   1.388       .  A
C714        C728   1.414       .  A
C714        C722   1.387       .  A
C715        C723   1.387       .  A
C715        C726   1.414       .  A
C716        C724   1.388       .  A
C716        C727   1.415       .  A
C717        H729   1.083       .  S
C718        H730   1.083       .  S
C719        H731   1.083       .  S
C720        H732   1.083       .  S
C721        C722   1.370   1_545  A
C721        H733   1.082       .  S
C722        H734   1.082       .  S
C723        C724   1.370       .  A
C723        H735   1.082       .  S
C724        H736   1.082       .  S
C726       C1056   1.452       .  S
C727       C1053   1.450       .  S
C728       C1051   1.451       .  S
C739        C740   1.531   1_554  S
C739        C745   1.530       .  S
C739       C1095   1.538   1_554  S
C739       C1046   1.467       .  S
C740        H747   1.087       .  S
C741        C742   1.540       .  S
C741       C1047   1.443       .  S
C742       C1098   1.538       .  S
C742        H748   1.112       .  S
C743       C1091   1.538       .  S
C743        H749   1.086       .  S
C743        C744   1.366       .  D
C744       C1052   1.440       .  S
C745        H750   1.087       .  S
C746       C1094   1.538   1_554  S
C746       C1049   1.440       .  S
C751        C752   1.529       .  S
C751       C1109   1.531       .  S
C751       C1107   1.538       .  S
C751       C1042   1.467       .  S
C752        H759   1.087       .  S
C753       C1106   1.537       .  S
C753       C1054   1.438       .  S
C754       C1105   1.537   1_554  S
C754        C758   1.540       .  S
C754        H760   1.112       .  S
C755       C1103   1.538   1_554  S
C755        H761   1.086       .  S
C755        C756   1.367       .  D
C756       C1055   1.441       .  S
C757       C1103   1.531       .  S
C757        H762   1.087   1_556  S
C758       C1043   1.442       .  S
N763        H795   1.036       .  S
N763        C768   1.356       .  A
N763        C767   1.357       .  A
N764        C771   1.352       .  A
N764        C772   1.352       .  A
N765        H796   1.034       .  S
N765        C770   1.355       .  A
N765        C769   1.355       .  A
N766        C773   1.351       .  A
N766        C774   1.353       .  A
C767        C775   1.388       .  A
C767        C783   1.419       .  A
C768        C784   1.419       .  A
C768        C776   1.389       .  A
C769        C777   1.389       .  A
C769        C786   1.417       .  A
C770        C785   1.417       .  A
C770        C778   1.388       .  A
C771        C783   1.415       .  A
C771        C779   1.388       .  A
C772        C786   1.415       .  A
C772        C780   1.387       .  A
C773        C781   1.388       .  A
C773        C784   1.415       .  A
C774        C782   1.387       .  A
C774        C785   1.414       .  A
C775        C776   1.373       .  A
C775        H787   1.083       .  S
C776        H788   1.083       .  S
C777        C778   1.373       .  A
C777        H789   1.083       .  S
C778        H790   1.083       .  S
C779        C780   1.370       .  A
C779        H791   1.082       .  S
C780        H792   1.082       .  S
C781        C782   1.370       .  A
C781        H793   1.082       .  S
C782        H794   1.082       .  S
C783       C1038   1.453       .  S
C784       C1034   1.451       .  S
C785       C1035   1.453       .  S
C786       C1040   1.451       .  S
C797        C798   1.530       .  S
C797       C1155   1.531       .  S
C797       C1153   1.539       .  S
C797       C1029   1.469       .  S
C798        H805   1.087       .  S
C798        C799   1.361       .  D
C799       C1152   1.537       .  S
C799       C1033   1.440       .  S
C800       C1151   1.537   1_554  S
C800        C804   1.539       .  S
C800        C802   1.535       .  S
C800        H806   1.112       .  S
C801       C1149   1.539   1_554  S
C801        H807   1.086       .  S
C801        C802   1.368       .  D
C802       C1036   1.442       .  S
C803       C1149   1.531       .  S
C803        H808   1.087       .  S
C803        C804   1.363   1_556  D
C804       C1031   1.442       .  S
C809       C1162   1.531       .  S
C809        C815   1.531       .  S
C809       C1165   1.539       .  S
C809       C1027   1.469       .  S
C810       C1161   1.531       .  S
C810        H817   1.087       .  S
C810        C811   1.363   1_556  D
C811        C812   1.540       .  S
C811       C1026   1.442       .  S
C812       C1168   1.538   1_554  S
C812        C814   1.534       .  S
C812        H818   1.112       .  S
C813       C1161   1.539   1_554  S
C813        H819   1.086       .  S
C813        C814   1.367       .  D
C814       C1039   1.440       .  S
C815        H820   1.087       .  S
C815        C816   1.362       .  D
C816       C1164   1.538       .  S
C816       C1037   1.442       .  S
N821        H853   1.038       .  S
N821        C826   1.356   1_455  A
N821        C825   1.356       .  A
N822        C829   1.351       .  A
N822       C1182   1.352       .  A
N823        H854   1.036       .  S
N823        C828   1.355   1_455  A
N823        C827   1.355       .  A
N824        C831   1.351       .  A
N824       C1184   1.352       .  A
C825        C833   1.388       .  A
C825        C841   1.417       .  A
C826        C842   1.418       .  A
C826        C834   1.389       .  A
C827        C835   1.389       .  A
C827        C844   1.418       .  A
C828        C843   1.418       .  A
C828        C836   1.388       .  A
C829        C841   1.414       .  A
C829        C837   1.388       .  A
C830       N1174   1.352       .  A
C830        C844   1.415       .  A
C830        C838   1.387       .  A
C831        C839   1.388       .  A
C831        C842   1.415       .  A
C832       N1176   1.352       .  A
C832        C840   1.387       .  A
C832        C843   1.415       .  A
C833        C834   1.373   1_455  A
C833        H845   1.083       .  S
C834        H846   1.083       .  S
C835        C836   1.373   1_455  A
C835        H847   1.083       .  S
C836        H848   1.083       .  S
C837       C1190   1.370       .  A
C837        H849   1.082       .  S
C838       C1189   1.370   1_554  A
C838        H850   1.082       .  S
C839       C1192   1.371       .  A
C839        H851   1.082       .  S
C840       C1191   1.371   1_554  A
C840        H852   1.082       .  S
C841       C1020   1.451       .  S
C842       C1022   1.451       .  S
C843       C1023   1.453       .  S
C844       C1017   1.453       .  S
C855        C856   1.531       .  S
C855        C861   1.532       .  S
C855        C859   1.540       .  S
C855       C1016   1.470       .  S
C856        H863   1.087       .  S
C856        C857   1.361       .  D
C857        C858   1.536       .  S
C857       C1019   1.439       .  S
C858        C862   1.538       .  S
C858        C860   1.534       .  S
C858        H864   1.112       .  S
C859        H865   1.086       .  S
C859        C860   1.368       .  D
C860       C1018   1.441       .  S
C861        H866   1.087       .  S
C861        C862   1.363       .  D
C862       C1013   1.441       .  S
C867        C868   1.531       .  S
C867        C873   1.529       .  S
C867        C871   1.539       .  S
C867       C1009   1.467       .  S
C868        H875   1.087       .  S
C868        C869   1.363       .  D
C869        C870   1.540       .  S
C869       C1011   1.442       .  S
C870        C874   1.537       .  S
C870        C872   1.536       .  S
C870        H876   1.112       .  S
C871        H877   1.086       .  S
C871        C872   1.368       .  D
C872       C1024   1.442       .  S
C873        H878   1.087       .  S
C873        C874   1.361       .  D
C874       C1021   1.439       .  S
N879        H911   1.037       .  S
N879        C884   1.356   1_455  A
N879        C883   1.357       .  A
N880       C1239   1.351   1_554  A
N880        C888   1.352       .  A
N881        H912   1.035       .  S
N881        C886   1.355   1_455  A
N881        C885   1.354       .  A
N882        C889   1.351       .  A
N882       C1242   1.352       .  A
C883        C891   1.388       .  A
C883        C899   1.418       .  A
C884        C900   1.419       .  A
C884        C892   1.389       .  A
C885        C893   1.389       .  A
C885        C902   1.417       .  A
C886        C901   1.417       .  A
C886        C894   1.388   1_565  A
C887       N1232   1.351       .  A
C887        C899   1.414       .  A
C887        C895   1.388       .  A
C888        C902   1.414       .  A
C888        C896   1.387       .  A
C889        C897   1.388       .  A
C889        C900   1.415       .  A
C890       N1234   1.352       .  A
C890        C898   1.386       .  A
C890        C901   1.414       .  A
C891        C892   1.373   1_455  A
C891        H903   1.083       .  S
C892        H904   1.083       .  S
C893        C894   1.373   1_465  A
C893        H905   1.083   1_565  S
C894        H906   1.083       .  S
C895       C1248   1.370       .  A
C895        H907   1.082       .  S
C896       C1247   1.370   1_554  A
C896        H908   1.082       .  S
C897       C1250   1.370       .  A
C897        H909   1.082       .  S
C898       C1249   1.370   1_554  A
C898        H910   1.082       .  S
C899       C1004   1.453       .  S
C900       C1006   1.451       .  S
C901       C1007   1.453   1_565  S
C902       C1001   1.449   1_565  S
C913        C919   1.531       .  S
C913        C917   1.538       .  S
C913        C999   1.469       .  S
C914        H921   1.087       .  S
C914        C915   1.364       .  D
C915        C916   1.539       .  S
C915        C997   1.443       .  S
C916        C920   1.537       .  S
C916        H922   1.112       .  S
C917        H923   1.086       .  S
C917        C918   1.367       .  D
C919        H924   1.087       .  S
C920       C1003   1.442       .  S
C925        C926   1.530       .  S
C925        C931   1.532       .  S
C925        C929   1.540       .  S
C925        C995   1.469       .  S
C926        H933   1.087       .  S
C927        C928   1.536       .  S
C927       C1005   1.439       .  S
C928        C932   1.539       .  S
C928        H934   1.112       .  S
C929        H935   1.086       .  S
C929        C930   1.368       .  D
C930       C1008   1.442       .  S
C931        H936   1.087       .  S
C932        C994   1.442       .  S
O937       Ni945   1.921       .  S
O937        C947   1.280       .  A
O938       Ni945   1.920       .  S
O938        C948   1.280       .  A
O939       Ni945   1.917       .  S
O939        C949   1.280       .  A
O940       Ni945   1.917       .  S
O940        C950   1.279       .  A
O941       Ni946   1.918       .  S
O941        C950   1.280       .  A
O942       Ni946   1.918       .  S
O942        C949   1.280       .  A
O943       Ni946   1.918       .  S
O943        C948   1.279       .  A
O944       Ni946   1.918       .  S
O944        C947   1.280       .  A
Ni945      Ni946   2.394       .  S
C947       C1028   1.436       .  S
C948        C996   1.436       .  S
C949       C1010   1.435       .  S
C950       C1041   1.434       .  S
O951       Ni959   1.919       .  S
O951        C961   1.280       .  A
O952       Ni959   1.918       .  S
O952        C962   1.280       .  A
O953       Ni959   1.920       .  S
O953        C963   1.280       .  A
O954       Ni959   1.919       .  S
O954        C964   1.280       .  A
O955       Ni960   1.919       .  S
O955        C964   1.280       .  A
O956       Ni960   1.919       .  S
O956        C963   1.280       .  A
O957       Ni960   1.920       .  S
O957        C962   1.280       .  A
O958       Ni960   1.920       .  S
O958        C961   1.280       .  A
Ni959      Ni960   2.394       .  S
C961       C1012   1.436       .  S
C962       C1044   1.436       .  S
C963       C1025   1.437       .  S
C964        C993   1.436       .  S
O965       Ni973   1.918       .  S
O965        C975   1.280       .  A
O966       Ni973   1.919       .  S
O966        C976   1.280       .  A
O967       Ni973   1.917       .  S
O967        C977   1.280       .  A
O968       Ni973   1.918       .  S
O968        C978   1.280       .  A
O969       Ni974   1.919       .  S
O969        C978   1.280       .  A
O970       Ni974   1.920       .  S
O970        C977   1.280       .  A
O971       Ni974   1.922       .  S
O971        C976   1.280       .  A
O972       Ni974   1.921       .  S
O972        C975   1.280       .  A
Ni973      Ni974   2.393       .  S
C975       C1048   1.437       .  S
C976       C1015   1.438       .  S
C977       C1000   1.436       .  S
C978       C1030   1.436       .  S
O979       Ni987   1.917       .  S
O979        C989   1.279       .  A
O980       Ni987   1.917       .  S
O980        C990   1.279       .  A
O981       Ni987   1.916       .  S
O981        C991   1.280       .  A
O982       Ni987   1.917       .  S
O982        C992   1.279       .  A
O983       Ni988   1.919       .  S
O983        C992   1.280       .  A
O984       Ni988   1.919       .  S
O984        C991   1.280       .  A
O985       Ni988   1.922       .  S
O985        C990   1.281       .  A
O986       Ni988   1.921       .  S
O986        C989   1.281       .  A
Ni987      Ni988   2.394       .  S
C989        C998   1.437       .  S
C990       C1032   1.437       .  S
C991       C1045   1.434       .  S
C992       C1014   1.435       .  S
C993        C994   1.206       .  T
C995        C996   1.207       .  T
C997        C998   1.207       .  T
C999       C1000   1.207       .  T
C1001      C1002   1.205       .  T
C1003      C1004   1.207       .  T
C1005      C1006   1.205       .  T
C1009      C1010   1.206       .  T
C1011      C1012   1.206       .  T
C1013      C1014   1.206       .  T
C1015      C1016   1.208       .  T
C1017      C1018   1.206       .  T
C1019      C1020   1.205       .  T
C1021      C1022   1.205       .  T
C1023      C1024   1.207       .  T
C1025      C1026   1.207       .  T
C1027      C1028   1.207       .  T
C1029      C1030   1.207       .  T
C1031      C1032   1.207       .  T
C1033      C1034   1.205       .  T
C1035      C1036   1.207       .  T
C1037      C1038   1.207       .  T
C1039      C1040   1.206       .  T
C1041      C1042   1.205       .  T
C1043      C1044   1.206       .  T
C1045      C1046   1.206       .  T
C1047      C1048   1.207       .  T
C1049      C1050   1.206       .  T
C1051      C1052   1.206       .  T
C1055      C1056   1.206       .  T
N1057      H1089   1.036       .  S
N1057      C1061   1.356       .  A
N1058      C1065   1.352       .  A
N1058      C1066   1.352   1_545  A
N1059      H1090   1.037       .  S
N1059      C1064   1.355       .  A
N1060      C1067   1.352       .  A
N1060      C1068   1.352       .  A
C1061      C1069   1.388       .  A
C1061      C1077   1.417       .  A
C1062      C1078   1.417       .  A
C1062      C1070   1.388       .  A
C1063      C1071   1.388       .  A
C1063      C1080   1.416       .  A
C1064      C1079   1.417       .  A
C1064      C1072   1.389       .  A
C1065      C1077   1.415       .  A
C1065      C1073   1.388       .  A
C1066      C1080   1.414       .  A
C1066      C1074   1.387       .  A
C1067      C1075   1.387       .  A
C1067      C1078   1.414       .  A
C1068      C1076   1.388       .  A
C1068      C1079   1.415       .  A
C1069      H1081   1.083       .  S
C1070      H1082   1.083       .  S
C1071      H1083   1.083       .  S
C1072      H1084   1.083       .  S
C1073      C1074   1.370   1_545  A
C1073      H1085   1.082       .  S
C1074      H1086   1.082       .  S
C1075      C1076   1.370       .  A
C1075      H1087   1.082       .  S
C1076      H1088   1.082       .  S
C1078      C1408   1.452       .  S
C1079      C1405   1.450       .  S
C1080      C1403   1.451       .  S
C1091      C1092   1.531       .  S
C1091      C1097   1.530       .  S
C1091      C1398   1.467       .  S
C1092      H1099   1.087       .  S
C1093      C1094   1.540       .  S
C1093      C1399   1.443       .  S
C1094      H1100   1.112       .  S
C1095      H1101   1.086       .  S
C1095      C1096   1.366       .  D
C1096      C1404   1.440       .  S
C1097      H1102   1.087       .  S
C1098      C1401   1.440       .  S
C1103      C1104   1.529       .  S
C1103      C1394   1.467       .  S
C1104      H1111   1.087       .  S
C1105      C1406   1.438       .  S
C1106      C1110   1.540       .  S
C1106      H1112   1.112       .  S
C1107      H1113   1.086       .  S
C1107      C1108   1.367       .  D
C1108      C1407   1.441       .  S
C1109      H1114   1.087       .  S
C1110      C1395   1.442       .  S
N1115      H1147   1.036       .  S
N1115      C1120   1.356       .  A
N1115      C1119   1.357       .  A
N1116      C1123   1.352       .  A
N1116      C1124   1.352       .  A
N1117      H1148   1.034       .  S
N1117      C1122   1.355       .  A
N1117      C1121   1.355       .  A
N1118      C1125   1.351       .  A
N1118      C1126   1.353       .  A
C1119      C1127   1.388       .  A
C1119      C1135   1.419       .  A
C1120      C1136   1.419       .  A
C1120      C1128   1.389       .  A
C1121      C1129   1.388       .  A
C1121      C1138   1.417       .  A
C1122      C1137   1.417       .  A
C1122      C1130   1.388       .  A
C1123      C1135   1.415       .  A
C1123      C1131   1.388       .  A
C1124      C1138   1.415       .  A
C1124      C1132   1.387       .  A
C1125      C1133   1.388       .  A
C1125      C1136   1.415       .  A
C1126      C1134   1.387       .  A
C1126      C1137   1.414       .  A
C1127      C1128   1.373       .  A
C1127      H1139   1.083       .  S
C1128      H1140   1.083       .  S
C1129      C1130   1.373       .  A
C1129      H1141   1.083       .  S
C1130      H1142   1.083       .  S
C1131      C1132   1.370       .  A
C1131      H1143   1.082       .  S
C1132      H1144   1.082       .  S
C1133      C1134   1.370       .  A
C1133      H1145   1.082       .  S
C1134      H1146   1.082       .  S
C1135      C1390   1.453       .  S
C1136      C1386   1.451       .  S
C1137      C1387   1.453       .  S
C1138      C1392   1.451       .  S
C1149      C1150   1.530       .  S
C1149      C1381   1.469       .  S
C1150      H1157   1.087       .  S
C1150      C1151   1.361       .  D
C1151      C1385   1.440       .  S
C1152      C1156   1.539       .  S
C1152      C1154   1.535       .  S
C1152      H1158   1.112       .  S
C1153      H1159   1.086       .  S
C1153      C1154   1.368       .  D
C1154      C1388   1.442       .  S
C1155      H1160   1.087       .  S
C1155      C1156   1.363       .  D
C1156      C1383   1.442       .  S
C1161      C1167   1.531       .  S
C1161      C1379   1.469       .  S
C1162      H1169   1.087       .  S
C1162      C1163   1.363       .  D
C1163      C1164   1.540       .  S
C1163      C1378   1.442       .  S
C1164      C1166   1.534       .  S
C1164      H1170   1.112       .  S
C1165      H1171   1.086       .  S
C1165      C1166   1.367       .  D
C1166      C1391   1.440       .  S
C1167      H1172   1.087       .  S
C1167      C1168   1.362       .  D
C1168      C1389   1.442       .  S
N1173      H1205   1.038       .  S
N1173      C1178   1.356   1_455  A
N1173      C1177   1.356       .  A
N1174      C1181   1.351   1_554  A
N1175      H1206   1.036       .  S
N1175      C1180   1.355   1_455  A
N1175      C1179   1.355       .  A
N1176      C1183   1.351   1_554  A
C1177      C1185   1.388       .  A
C1177      C1193   1.417       .  A
C1178      C1194   1.418       .  A
C1178      C1186   1.389       .  A
C1179      C1187   1.389       .  A
C1179      C1196   1.418       .  A
C1180      C1195   1.418       .  A
C1180      C1188   1.388       .  A
C1181      C1193   1.414       .  A
C1181      C1189   1.388       .  A
C1182      C1196   1.415       .  A
C1182      C1190   1.387       .  A
C1183      C1191   1.388       .  A
C1183      C1194   1.415       .  A
C1184      C1192   1.387       .  A
C1184      C1195   1.415       .  A
C1185      C1186   1.373   1_455  A
C1185      H1197   1.083       .  S
C1186      H1198   1.083       .  S
C1187      C1188   1.373   1_455  A
C1187      H1199   1.083       .  S
C1188      H1200   1.083       .  S
C1189      H1201   1.082       .  S
C1190      H1202   1.082       .  S
C1191      H1203   1.082       .  S
C1192      H1204   1.082       .  S
C1193      C1372   1.451       .  S
C1194      C1374   1.451       .  S
C1195      C1375   1.453       .  S
C1196      C1369   1.453       .  S
C1207      C1208   1.531       .  S
C1207      C1213   1.532       .  S
C1207      C1211   1.540       .  S
C1207      C1368   1.470       .  S
C1208      H1215   1.087       .  S
C1208      C1209   1.361       .  D
C1209      C1210   1.536       .  S
C1209      C1371   1.439       .  S
C1210      C1214   1.538       .  S
C1210      C1212   1.534       .  S
C1210      H1216   1.112       .  S
C1211      H1217   1.086       .  S
C1211      C1212   1.368       .  D
C1212      C1370   1.441       .  S
C1213      H1218   1.087       .  S
C1213      C1214   1.363       .  D
C1214      C1365   1.441       .  S
C1219      C1220   1.531       .  S
C1219      C1225   1.529       .  S
C1219      C1223   1.539       .  S
C1219      C1361   1.467       .  S
C1220      H1227   1.087       .  S
C1220      C1221   1.363       .  D
C1221      C1222   1.540       .  S
C1221      C1363   1.442       .  S
C1222      C1226   1.537       .  S
C1222      C1224   1.536       .  S
C1222      H1228   1.112       .  S
C1223      H1229   1.086       .  S
C1223      C1224   1.368       .  D
C1224      C1376   1.442       .  S
C1225      H1230   1.087       .  S
C1225      C1226   1.361       .  D
C1226      C1373   1.439       .  S
N1231      H1263   1.037       .  S
N1231      C1236   1.356   1_455  A
N1231      C1235   1.357       .  A
N1232      C1240   1.352       .  A
N1233      H1264   1.035       .  S
N1233      C1238   1.355   1_455  A
N1233      C1237   1.354       .  A
N1234      C1241   1.351   1_554  A
C1235      C1243   1.388       .  A
C1235      C1251   1.418       .  A
C1236      C1252   1.419       .  A
C1236      C1244   1.389       .  A
C1237      C1245   1.389       .  A
C1237      C1254   1.417       .  A
C1238      C1253   1.417       .  A
C1238      C1246   1.388   1_565  A
C1239      C1251   1.414       .  A
C1239      C1247   1.388       .  A
C1240      C1254   1.414       .  A
C1240      C1248   1.387       .  A
C1241      C1249   1.388       .  A
C1241      C1252   1.415       .  A
C1242      C1250   1.386       .  A
C1242      C1253   1.414       .  A
C1243      C1244   1.373   1_455  A
C1243      H1255   1.083       .  S
C1244      H1256   1.083       .  S
C1245      C1246   1.373   1_465  A
C1245      H1257   1.083   1_565  S
C1246      H1258   1.083       .  S
C1247      H1259   1.082       .  S
C1248      H1260   1.082       .  S
C1249      H1261   1.082       .  S
C1250      H1262   1.082       .  S
C1251      C1356   1.453       .  S
C1252      C1358   1.451       .  S
C1253      C1359   1.453   1_565  S
C1254      C1353   1.449   1_565  S
C1265      C1271   1.531       .  S
C1265      C1269   1.538       .  S
C1265      C1351   1.469       .  S
C1266      H1273   1.087       .  S
C1266      C1267   1.364       .  D
C1267      C1268   1.539       .  S
C1267      C1349   1.443       .  S
C1268      C1272   1.537       .  S
C1268      H1274   1.112       .  S
C1269      H1275   1.086       .  S
C1269      C1270   1.367       .  D
C1271      H1276   1.087       .  S
C1272      C1355   1.442       .  S
C1277      C1278   1.530       .  S
C1277      C1283   1.532       .  S
C1277      C1281   1.540       .  S
C1277      C1347   1.469       .  S
C1278      H1285   1.087       .  S
C1279      C1280   1.536       .  S
C1279      C1357   1.439       .  S
C1280      C1284   1.539       .  S
C1280      H1286   1.112       .  S
C1281      H1287   1.086       .  S
C1281      C1282   1.368       .  D
C1282      C1360   1.442       .  S
C1283      H1288   1.087       .  S
C1284      C1346   1.442       .  S
O1289     Ni1297   1.921       .  S
O1289      C1299   1.280       .  A
O1290     Ni1297   1.920       .  S
O1290      C1300   1.280       .  A
O1291     Ni1297   1.917       .  S
O1291      C1301   1.280       .  A
O1292     Ni1297   1.917       .  S
O1292      C1302   1.279       .  A
O1293     Ni1298   1.918       .  S
O1293      C1302   1.280       .  A
O1294     Ni1298   1.918       .  S
O1294      C1301   1.280       .  A
O1295     Ni1298   1.918       .  S
O1295      C1300   1.279       .  A
O1296     Ni1298   1.918       .  S
O1296      C1299   1.280       .  A
Ni1297    Ni1298   2.394       .  S
C1299      C1380   1.436       .  S
C1300      C1348   1.436       .  S
C1301      C1362   1.435       .  S
C1302      C1393   1.434       .  S
O1303     Ni1311   1.919       .  S
O1303      C1313   1.280       .  A
O1304     Ni1311   1.918       .  S
O1304      C1314   1.280       .  A
O1305     Ni1311   1.920       .  S
O1305      C1315   1.280       .  A
O1306     Ni1311   1.919       .  S
O1306      C1316   1.280       .  A
O1307     Ni1312   1.919       .  S
O1307      C1316   1.280       .  A
O1308     Ni1312   1.919       .  S
O1308      C1315   1.280       .  A
O1309     Ni1312   1.920       .  S
O1309      C1314   1.280       .  A
O1310     Ni1312   1.920       .  S
O1310      C1313   1.280       .  A
Ni1311    Ni1312   2.394       .  S
C1313      C1364   1.436       .  S
C1314      C1396   1.436       .  S
C1315      C1377   1.437       .  S
C1316      C1345   1.436       .  S
O1317     Ni1325   1.918       .  S
O1317      C1327   1.280       .  A
O1318     Ni1325   1.919       .  S
O1318      C1328   1.280       .  A
O1319     Ni1325   1.917       .  S
O1319      C1329   1.280       .  A
O1320     Ni1325   1.918       .  S
O1320      C1330   1.280       .  A
O1321     Ni1326   1.919       .  S
O1321      C1330   1.280       .  A
O1322     Ni1326   1.921       .  S
O1322      C1329   1.280       .  A
O1323     Ni1326   1.922       .  S
O1323      C1328   1.280       .  A
O1324     Ni1326   1.921       .  S
O1324      C1327   1.280       .  A
Ni1325    Ni1326   2.393       .  S
C1327      C1400   1.437       .  S
C1328      C1367   1.438       .  S
C1329      C1352   1.436       .  S
C1330      C1382   1.436       .  S
O1331     Ni1339   1.917       .  S
O1331      C1341   1.279       .  A
O1332     Ni1339   1.917       .  S
O1332      C1342   1.279       .  A
O1333     Ni1339   1.916       .  S
O1333      C1343   1.280       .  A
O1334     Ni1339   1.917       .  S
O1334      C1344   1.279       .  A
O1335     Ni1340   1.919       .  S
O1335      C1344   1.280       .  A
O1336     Ni1340   1.919       .  S
O1336      C1343   1.280       .  A
O1337     Ni1340   1.922       .  S
O1337      C1342   1.281       .  A
O1338     Ni1340   1.921       .  S
O1338      C1341   1.281       .  A
Ni1339    Ni1340   2.394       .  S
C1341      C1350   1.437       .  S
C1342      C1384   1.437       .  S
C1343      C1397   1.434       .  S
C1344      C1366   1.435       .  S
C1345      C1346   1.206       .  T
C1347      C1348   1.207       .  T
C1349      C1350   1.207       .  T
C1351      C1352   1.207       .  T
C1353      C1354   1.205       .  T
C1355      C1356   1.207       .  T
C1357      C1358   1.205       .  T
C1361      C1362   1.206       .  T
C1363      C1364   1.206       .  T
C1365      C1366   1.206       .  T
C1367      C1368   1.208       .  T
C1369      C1370   1.206       .  T
C1371      C1372   1.205       .  T
C1373      C1374   1.205       .  T
C1375      C1376   1.207       .  T
C1377      C1378   1.207       .  T
C1379      C1380   1.207       .  T
C1381      C1382   1.207       .  T
C1383      C1384   1.207       .  T
C1385      C1386   1.205       .  T
C1387      C1388   1.207       .  T
C1389      C1390   1.207       .  T
C1391      C1392   1.206       .  T
C1393      C1394   1.205       .  T
C1395      C1396   1.206       .  T
C1397      C1398   1.206       .  T
C1399      C1400   1.207       .  T
C1401      C1402   1.206       .  T
C1403      C1404   1.206       .  T
C1407      C1408   1.206       .  T
