geometry optimzed in LAMMPS
_audit_creation_date              2020-12-01 
_audit_creation_method            'lammps2cif' 
_symmetry_space_group_name_H-M    'P1' 
_symmetry_Int_Tables_number       1 
_symmetry_cell_setting            triclinic 
loop_ 
_symmetry_equiv_pos_as_xyz 
  x,y,z 
_cell_length_a                    27.54803248 
_cell_length_b                    27.42907576512457 
_cell_length_c                    30.610773393485943 
_cell_angle_alpha                 89.98090906538187 
_cell_angle_beta                  90.15955863152428 
_cell_angle_gamma                 90.12758597980033 
loop_ 
_atom_site_label 
_atom_site_type_symbol 
_atom_site_fract_x 
_atom_site_fract_y 
_atom_site_fract_z 
_atom_site_charge 
O1          O  0.96372753  0.05367031  0.78685562    -0.74900
O2          O  0.02630309  0.92802727  0.78520901    -0.75000
O3          O  0.05684758  0.02186906  0.78461033    -0.75000
O4          O  0.93260772  0.95969104  0.78842801    -0.75100
O5          O  0.92960219  0.95994650  0.71571166    -0.75000
O6          O  0.05541894  0.02136272  0.71182807    -0.75000
O7          O  0.02303003  0.92795573  0.71255866    -0.75000
O8          O  0.96248398  0.05356142  0.71404926    -0.75000
Ni9        Ni  0.99491534  0.99075417  0.78884790     1.25400
Ni10       Ni  0.99242285  0.99063532  0.71096490     1.25400
C11         C  0.95327395  0.07451327  0.75048061     0.87200
C12         C  0.03541022  0.90743027  0.74844197     0.87200
C13         C  0.07649803  0.03236343  0.74793527     0.87200
C14         C  0.91050976  0.94939034  0.75276253     0.87400
O15         O  0.97041160  0.06438520  0.21189028    -0.74900
O16         O  0.03382288  0.93946773  0.21090536    -0.75000
O17         O  0.93981387  0.97030022  0.20965551    -0.75000
O18         O  0.06368129  0.03361632  0.21238832    -0.75100
O19         O  0.06351305  0.03123801  0.28517853    -0.75000
O20         O  0.93811581  0.96942228  0.28243820    -0.75000
O21         O  0.03121815  0.93760385  0.28369796    -0.75000
O22         O  0.97044157  0.06321881  0.28452800    -0.75000
Ni23       Ni  0.00193299  0.00191441  0.20863172     1.25400
Ni24       Ni  0.00076093  0.00030654  0.28654377     1.25400
C25         C  0.96036184  0.08474819  0.24845186     0.87200
C26         C  0.04306861  0.91808089  0.24727627     0.87200
C27         C  0.91817531  0.95995740  0.24546698     0.87200
C28         C  0.08391801  0.04316233  0.24909179     0.87400
N29         N  0.24258926  0.35714421  0.00145628    -0.37100
N30         N  0.23056441  0.43323653  0.06796274    -0.57700
N31         N  0.21256052  0.50472019  0.99995572    -0.37100
N32         N  0.22894943  0.42988868  0.93353050    -0.57700
C33         C  0.25801125  0.33269893  0.03729810     0.26500
C34         C  0.25497974  0.33041482  0.96597150     0.26500
C35         C  0.21674817  0.53431557  0.03521459     0.26500
C36         C  0.21895532  0.53267143  0.96389422     0.26500
C37         C  0.23560751  0.39413081  0.09451626     0.35100
C38         C  0.21723017  0.47104498  0.09367019     0.35100
C39         C  0.22800686  0.38918735  0.90853524     0.35100
C40         C  0.21352382  0.46694505  0.90787165     0.35100
C41         C  0.27909592  0.28909093  0.02448767    -0.22400
C42         C  0.27697168  0.28754037  0.97961406    -0.22400
C43         C  0.22531939  0.58167051  0.02140555    -0.22400
C44         C  0.22732610  0.58053800  0.97648025    -0.22400
C45         C  0.22596221  0.40732885  0.13734596    -0.23500
C46         C  0.21406626  0.45589704  0.13677496    -0.23400
C47         C  0.21213256  0.40063501  0.86674239    -0.23500
C48         C  0.20228710  0.44956565  0.86653465    -0.23400
C49         C  0.25180234  0.34740166  0.08138225    -0.18800
C50         C  0.24559009  0.34292475  0.92171240    -0.18800
C51         C  0.21354779  0.51685282  0.91998408    -0.18800
C52         C  0.21226331  0.51998320  0.07952795    -0.18800
H53         H  0.29419191  0.26100667  0.04529485     0.14100
H54         H  0.29008325  0.25799301  0.95945686     0.14100
H55         H  0.23012399  0.61367944  0.04163605     0.14100
H56         H  0.23336662  0.61165718  0.95543130     0.14100
H57         H  0.22790474  0.38450644  0.16614811     0.12400
H58         H  0.20540343  0.47783677  0.16507058     0.12400
H59         H  0.20849926  0.37668579  0.83888536     0.12400
H60         H  0.18929304  0.47009832  0.83868899     0.12400
H61         H  0.22121424  0.38819240  0.00144404     0.25700
H62         H  0.20056867  0.46877828  0.00035369     0.25700
C63         C  0.64588772  0.82436264  0.72919472     0.86000
C64         C  0.69455480  0.85071357  0.72379982    -0.54300
C65         C  0.71982414  0.85817497  0.76170027     0.08900
C66         C  0.69378253  0.83752186  0.80236703     0.19900
C67         C  0.65944116  0.77670748  0.75335390    -0.55000
C68         C  0.68357137  0.78369150  0.79173822     0.09000
C69         C  0.61822816  0.85399942  0.76391932    -0.54500
C70         C  0.64314915  0.86121204  0.80214134     0.09600
H71         H  0.70782837  0.86267369  0.69217197     0.14100
H72         H  0.71426102  0.84247872  0.83327747    -0.00200
H73         H  0.65049661  0.74014986  0.74305043     0.14400
H74         H  0.58181944  0.86799735  0.75868472     0.14200
C75         C  0.65373107  0.83024283  0.26678951     0.86000
C76         C  0.62965464  0.86067235  0.23076622    -0.54300
C77         C  0.65737655  0.86754564  0.19455793     0.08900
C78         C  0.70765746  0.84339742  0.19736098     0.19900
C79         C  0.67043421  0.78264135  0.24450871    -0.55000
C80         C  0.69754350  0.78930693  0.20756508     0.09000
C81         C  0.70223401  0.85675193  0.27593589    -0.54500
C82         C  0.73074440  0.86313754  0.23986213     0.09600
H83         H  0.59324500  0.87547812  0.23364578     0.14100
H84         H  0.72970273  0.84945392  0.16756202    -0.00200
H85         H  0.66209897  0.74654602  0.25683600     0.14400
H86         H  0.71419177  0.86825085  0.30808574     0.14200
C87         C  0.34534408  0.17507704  0.28147791     0.86000
C88         C  0.37534212  0.14422704  0.24916596    -0.54300
C89         C  0.35197952  0.13294961  0.21125227     0.08900
C90         C  0.30040689  0.15382634  0.20853931     0.19900
C91         C  0.33157957  0.22003759  0.25378132    -0.55000
C92         C  0.30800233  0.20904505  0.21568906     0.09000
C93         C  0.29775818  0.14707878  0.28779830    -0.54500
C94         C  0.27429261  0.13481573  0.24994910     0.09600
H95         H  0.41302524  0.13431836  0.25470806     0.14100
H96         H  0.28197889  0.14497272  0.17722672    -0.00200
H97         H  0.34248422  0.25702018  0.26116185     0.14400
H98         H  0.28343763  0.13891176  0.31996445     0.14200
C99         C  0.34050584  0.16772871  0.72740502     0.86000
C100        C  0.29422066  0.13769920  0.71714778    -0.54300
C101        C  0.26684799  0.12567577  0.75310939     0.08900
C102        C  0.28782581  0.14749951  0.79600538     0.19900
C103        C  0.31966948  0.21288645  0.75064514    -0.55000
C104        C  0.29306402  0.20243278  0.78696826     0.09000
C105        C  0.36704997  0.13843876  0.76283223    -0.54500
C106        C  0.33993955  0.12854618  0.79868795     0.09600
H107        H  0.28223347  0.13018083  0.68413179     0.14100
H108        H  0.26736167  0.13927041  0.82626163    -0.00200
H109        H  0.32578842  0.25010335  0.74003686     0.14400
H110        H  0.40500274  0.12805130  0.76046048     0.14200
O111        O  0.52052674  0.94978491  0.04520759    -0.74900
O112        O  0.43525674  0.00736467  0.96099084    -0.75000
O113        O  0.51329234  0.94789814  0.95734341    -0.75000
O114        O  0.44260652  0.00940400  0.04948205    -0.75100
O115        O  0.49106724  0.07401426  0.04500957    -0.75000
O116        O  0.56223092  0.01264171  0.95260235    -0.75000
O117        O  0.48395010  0.07222298  0.95670951    -0.75000
O118        O  0.56946789  0.01455727  0.04172623    -0.75000
Ni119      Ni  0.47616229  0.97640444  0.00339986     1.25400
Ni120      Ni  0.52845771  0.04569790  0.99884787     1.25400
C121        C  0.55876479  0.97260570  0.05757744     0.87200
C122        C  0.44560991  0.04916394  0.94480298     0.87200
C123        C  0.54920630  0.97009199  0.93976657     0.87200
C124        C  0.45546107  0.05175053  0.06300829     0.87400
N125        N  0.73502386  0.62412238  0.99953757    -0.37100
N126        N  0.75531588  0.55162551  0.93262124    -0.57700
N127        N  0.77963387  0.48076883  0.99903261    -0.37100
N128        N  0.76193254  0.55453550  0.06631784    -0.57700
C129        C  0.73396121  0.65254993  0.96343896     0.26500
C130        C  0.73688347  0.65402992  0.03464456     0.26500
C131        C  0.79794315  0.45871022  0.96303626     0.26500
C132        C  0.80028120  0.45963379  0.03440739     0.26500
C133        C  0.73330638  0.58607409  0.90801643     0.35100
C134        C  0.75655238  0.51060206  0.90818720     0.35100
C135        C  0.74471093  0.59040388  0.09234717     0.35100
C136        C  0.76789556  0.51490701  0.09201870     0.35100
C137        C  0.73417581  0.70121960  0.97580463    -0.22400
C138        C  0.73595019  0.70214941  0.02068982    -0.22400
C139        C  0.83075052  0.42315077  0.97581090    -0.22400
C140        C  0.83159375  0.42317385  0.02086481    -0.22400
C141        C  0.72045810  0.56688943  0.86773126    -0.23500
C142        C  0.73440304  0.51891904  0.86811530    -0.23400
C143        C  0.74054572  0.57371200  0.13489851    -0.23500
C144        C  0.75506126  0.52591782  0.13468464    -0.23400
C145        C  0.72890984  0.63563311  0.91995989    -0.18800
C146        C  0.73588394  0.63894658  0.07887389    -0.18800
C147        C  0.78879188  0.47031464  0.07844306    -0.18800
C148        C  0.78325934  0.46819036  0.91935114    -0.18800
H149        H  0.73208222  0.73291283  0.95483333     0.14100
H150        H  0.73563619  0.73469261  0.04064916     0.14100
H151        H  0.85123309  0.39897173  0.95493154     0.14100
H152        H  0.85286497  0.39904629  0.04126013     0.14100
H153        H  0.70350192  0.58553657  0.84056233     0.12400
H154        H  0.73023115  0.49354168  0.84129319     0.12400
H155        H  0.72899126  0.59398234  0.16333451     0.12400
H156        H  0.75703028  0.50239657  0.16301786     0.12400
H157        H  0.72905771  0.58679550  0.00028819     0.25700
H158        H  0.75057328  0.50486379  0.99977468     0.25700
N159        N  0.36269615  0.77360415  0.49745580    -0.37100
N160        N  0.43256635  0.79756126  0.42967735    -0.57700
N161        N  0.50782388  0.81371064  0.49452802    -0.37100
N162        N  0.43870602  0.78612158  0.56225818    -0.57700
C163        C  0.33779829  0.75942346  0.46146102     0.26500
C164        C  0.34149639  0.75210538  0.53236965     0.26500
C165        C  0.53491502  0.81002498  0.45782379     0.26500
C166        C  0.53794274  0.80715809  0.52898998     0.26500
C167        C  0.39129206  0.79769502  0.40572050     0.35100
C168        C  0.46757976  0.81689926  0.40409153     0.35100
C169        C  0.40040587  0.77936425  0.58915268     0.35100
C170        C  0.47563227  0.80222281  0.58758835     0.35100
C171        C  0.29957413  0.72942998  0.47372868    -0.22400
C172        C  0.30183050  0.72492680  0.51851132    -0.22400
C173        C  0.58292594  0.80141113  0.46923792    -0.22400
C174        C  0.58493177  0.80027997  0.51419440    -0.22400
C175        C  0.39989628  0.81777179  0.36493190    -0.23500
C176        C  0.44817764  0.83023302  0.36397906    -0.23400
C177        C  0.41313906  0.79096748  0.63172631    -0.23500
C178        C  0.46070322  0.80566442  0.63071987    -0.23400
C179        C  0.34774111  0.77431115  0.41808660    -0.18800
C180        C  0.35558958  0.75849937  0.57650423    -0.18800
C181        C  0.52406969  0.80802678  0.57342312    -0.18800
C182        C  0.51768296  0.81692667  0.41456619    -0.18800
H183        H  0.27266559  0.71272043  0.45266274     0.14100
H184        H  0.27698580  0.70409333  0.53854597     0.14100
H185        H  0.61348536  0.79687998  0.44749007     0.14100
H186        H  0.61717363  0.79432058  0.53374681     0.14100
H187        H  0.37433204  0.82171817  0.33825099     0.12400
H188        H  0.46717245  0.84582029  0.33638384     0.12400
H189        H  0.39086852  0.78809718  0.66068287     0.12400
H190        H  0.48226990  0.81614683  0.65881275     0.12400
H191        H  0.38962646  0.80015381  0.49847714     0.25700
H192        H  0.47178689  0.82473080  0.49628885     0.25700
C193        C  0.18675628  0.65278306  0.77258287     0.86000
C194        C  0.15614274  0.62527924  0.73857762    -0.54300
C195        C  0.14498596  0.65172913  0.70231173     0.08900
C196        C  0.16505269  0.70397214  0.70299568     0.19900
C197        C  0.23127392  0.67252570  0.74731002    -0.55000
C198        C  0.21978944  0.69828318  0.71042757     0.09000
C199        C  0.15728367  0.69959787  0.78204836    -0.54500
C200        C  0.14628229  0.72673153  0.74580864     0.09600
H201        H  0.14512671  0.58746765  0.74246218     0.14100
H202        H  0.15605564  0.72484298  0.67297085    -0.00200
H203        H  0.26860028  0.66730645  0.75752713     0.14400
H204        H  0.14654574  0.71106226  0.81444570     0.14200
C205        C  0.17868681  0.65703636  0.22455024     0.86000
C206        C  0.14816763  0.70301864  0.21593470    -0.54300
C207        C  0.13684613  0.72897201  0.25267947     0.08900
C208        C  0.15775341  0.70688462  0.29510816     0.19900
C209        C  0.22346563  0.67796688  0.24915339    -0.55000
C210        C  0.21269607  0.70279206  0.28670744     0.09000
C211        C  0.15072093  0.62814217  0.25963247    -0.54500
C212        C  0.13990696  0.65389923  0.29638103     0.09600
H213        H  0.13742757  0.71472599  0.18342937     0.14100
H214        H  0.14811209  0.72755744  0.32500132    -0.00200
H215        H  0.26046656  0.67577255  0.23789044     0.14400
H216        H  0.14100906  0.58995079  0.25593084     0.14200
C217        C  0.82543521  0.34732007  0.23124511     0.86000
C218        C  0.85674239  0.30196007  0.22387073    -0.54300
C219        C  0.86676065  0.27526883  0.26064089     0.08900
C220        C  0.84426618  0.29764635  0.30237720     0.19900
C221        C  0.77987852  0.32802147  0.25540276    -0.55000
C222        C  0.78961174  0.30213338  0.29258199     0.09000
C223        C  0.85218302  0.37663250  0.26678863    -0.54500
C224        C  0.86276747  0.35059809  0.30350927     0.09600
H225        H  0.86967950  0.29190818  0.19164164     0.14100
H226        H  0.85146903  0.27768592  0.33309090    -0.00200
H227        H  0.74281627  0.33617436  0.24634777     0.14400
H228        H  0.86208544  0.41477977  0.26328738     0.14200
C229        C  0.83844921  0.34795859  0.76754842     0.86000
C230        C  0.87255885  0.36995353  0.73296648    -0.54300
C231        C  0.87838131  0.34232043  0.69646372     0.08900
C232        C  0.85317114  0.29230880  0.69931696     0.19900
C233        C  0.79199972  0.33334830  0.74286656    -0.55000
C234        C  0.79918758  0.30361275  0.70772203     0.09000
C235        C  0.86339837  0.29897376  0.77834219    -0.54500
C236        C  0.87178852  0.26989012  0.74264205     0.09600
H237        H  0.89294001  0.40331564  0.73720658     0.14100
H238        H  0.85941470  0.26938243  0.67004000    -0.00200
H239        H  0.75615166  0.34531492  0.75287460     0.14400
H240        H  0.87412897  0.28851723  0.81118203     0.14200
O241        O  0.95274203  0.48132758  0.54509962    -0.74900
O242        O  0.00573156  0.56359076  0.45568394    -0.75000
O243        O  0.94838594  0.48377378  0.45721297    -0.75000
O244        O  0.01008878  0.56176574  0.54510290    -0.75100
O245        O  0.07602692  0.51494687  0.54128945    -0.75000
O246        O  0.01329312  0.43550816  0.45395127    -0.75000
O247        O  0.07094165  0.51557341  0.45265429    -0.75000
O248        O  0.01875155  0.43432964  0.54274058    -0.75000
Ni249      Ni  0.97700082  0.52439927  0.50095347     1.25400
Ni250      Ni  0.04712662  0.47342441  0.49756786     1.25400
C251        C  0.97694769  0.44435019  0.55844304     0.87200
C252        C  0.04668971  0.55223955  0.43877922     0.87200
C253        C  0.97053021  0.44706980  0.44090719     0.87200
C254        C  0.05314668  0.55117497  0.55786015     0.87400
N255        N  0.63628178  0.24370470  0.50414117    -0.37100
N256        N  0.56605847  0.22047133  0.57213066    -0.57700
N257        N  0.49307437  0.20238407  0.50643789    -0.37100
N258        N  0.56233928  0.22796043  0.43826542    -0.57700
C259        C  0.65992078  0.26047232  0.53992973     0.26500
C260        C  0.65864235  0.26270274  0.46866981     0.26500
C261        C  0.46531806  0.20462622  0.54279448     0.26500
C262        C  0.46321744  0.20848430  0.47176897     0.26500
C263        C  0.60688769  0.22289249  0.59656200     0.35100
C264        C  0.53153259  0.20004483  0.59757210     0.35100
C265        C  0.60120069  0.23292939  0.41174864     0.35100
C266        C  0.52553874  0.21125088  0.41310129     0.35100
C267        C  0.69825285  0.29001271  0.52696433    -0.22400
C268        C  0.69746165  0.29136778  0.48200558    -0.22400
C269        C  0.41729988  0.21228377  0.53104965    -0.22400
C270        C  0.41586960  0.21408062  0.48621791    -0.22400
C271        C  0.59835578  0.20381314  0.63777404    -0.23500
C272        C  0.55074544  0.18882153  0.63825675    -0.23400
C273        C  0.58895679  0.21975082  0.36942776    -0.23500
C274        C  0.54097843  0.20601952  0.37026543    -0.23400
C275        C  0.64981232  0.24720626  0.58373450    -0.18800
C276        C  0.64629494  0.25306411  0.42457109    -0.18800
C277        C  0.47717433  0.20521307  0.42749103    -0.18800
C278        C  0.48183421  0.19674794  0.58602322    -0.18800
H279        H  0.72451250  0.30824207  0.54766754     0.14100
H280        H  0.72272180  0.31106710  0.46147177     0.14100
H281        H  0.38628509  0.21529952  0.55248645     0.14100
H282        H  0.38343443  0.21854762  0.46665153     0.14100
H283        H  0.62343145  0.20191417  0.66499182     0.12400
H284        H  0.53205146  0.17295871  0.66588937     0.12400
H285        H  0.61188998  0.22089631  0.34078824     0.12400
H286        H  0.51965323  0.19463972  0.34231334     0.12400
H287        H  0.60974639  0.21654765  0.50378903     0.25700
H288        H  0.52916642  0.19132383  0.50500049     0.25700
C289        C  0.90659212  0.36085702  0.65846716    -0.06600
C290        C  0.95337517  0.37986813  0.66584609    -0.17800
C291        C  0.97804591  0.40585819  0.63334184     0.10600
C292        C  0.95571576  0.41292272  0.59231155    -0.06600
C293        C  0.91038300  0.39169826  0.58401677    -0.17800
C294        C  0.88568610  0.36589850  0.61647984     0.10600
S295        S  0.03633705  0.43171304  0.64711126    -0.32800
S296        S  0.82565003  0.34505209  0.60343149    -0.32800
H297        H  0.80511281  0.37309155  0.63705658     0.28600
H298        H  0.02906747  0.47584449  0.62472930     0.28600
H299        H  0.96992589  0.37632264  0.69784291     0.19200
H300        H  0.89324676  0.39686164  0.55241786     0.19200
C301        C  0.75855633  0.28679437  0.67898121    -0.06600
C302        C  0.72302392  0.32074330  0.66617466    -0.17800
C303        C  0.68636614  0.30836555  0.63644514     0.10600
C304        C  0.68533246  0.26112926  0.61822649    -0.06600
C305        C  0.71938042  0.22654609  0.63213816    -0.17800
C306        C  0.75539861  0.23852074  0.66289670     0.10600
S307        S  0.64327427  0.35508143  0.62173840    -0.32800
S308        S  0.79483398  0.19103633  0.68306382    -0.32800
H309        H  0.77356172  0.15214559  0.65994157     0.28600
H310        H  0.60427081  0.32372827  0.61227414     0.28600
H311        H  0.72458591  0.35775571  0.67846054     0.19200
H312        H  0.71750344  0.19005597  0.61875594     0.19200
C313        C  0.89045199  0.37206664  0.34029263    -0.06600
C314        C  0.94075684  0.37823690  0.33580553    -0.17800
C315        C  0.96844066  0.40124854  0.36838106     0.10600
C316        C  0.94529388  0.41837678  0.40666750    -0.06600
C317        C  0.89511750  0.41080525  0.41142796    -0.17800
C318        C  0.86758048  0.38829283  0.37871747     0.10600
S319        S  0.03235887  0.40917196  0.35789927    -0.32800
S320        S  0.80321032  0.38309933  0.38730893    -0.32800
H321        H  0.79066345  0.39581906  0.34425773     0.28600
H322        H  0.03593636  0.45615225  0.37580419     0.28600
H323        H  0.95841247  0.36593370  0.30619564     0.19200
H324        H  0.87689143  0.42359104  0.44058835     0.19200
C325        C  0.75088583  0.28686577  0.32394109    -0.06600
C326        C  0.71358774  0.32006779  0.33384785    -0.17800
C327        C  0.67932360  0.31035885  0.36644187     0.10600
C328        C  0.68192133  0.26613620  0.38997830    -0.06600
C329        C  0.71819780  0.23234790  0.37949935    -0.17800
C330        C  0.75195460  0.24174045  0.34634377     0.10600
S331        S  0.63357661  0.35618350  0.37606650    -0.32800
S332        S  0.79307953  0.19326629  0.33233146    -0.32800
H333        H  0.79305686  0.20381388  0.28737292     0.28600
H334        H  0.61931258  0.34141678  0.41799009     0.28600
H335        H  0.71203628  0.35486971  0.31717680     0.19200
H336        H  0.71942682  0.19778803  0.39663642     0.19200
C337        C  0.11468927  0.63144514  0.33432226    -0.06600
C338        C  0.06764813  0.61263989  0.32847638    -0.17800
C339        C  0.04336954  0.58842412  0.36240616     0.10600
C340        C  0.06722410  0.58155131  0.40290857    -0.06600
C341        C  0.11399882  0.60042046  0.40867645    -0.17800
C342        C  0.13748539  0.62620728  0.37544391     0.10600
S343        S  0.98306331  0.56590507  0.35101659    -0.32800
S344        S  0.19767480  0.64903810  0.38590824    -0.32800
H345        H  0.19619291  0.64532956  0.43173892     0.28600
H346        H  0.98469713  0.52562204  0.37908839     0.28600
H347        H  0.04991161  0.61631797  0.29701283     0.19200
H348        H  0.13266281  0.59416617  0.43924497     0.19200
C349        C  0.07615426  0.58049212  0.59306646    -0.06600
C350        C  0.04942880  0.59012987  0.63113321    -0.17800
C351        C  0.07039656  0.61470133  0.66670187     0.10600
C352        C  0.11925080  0.63015855  0.66439437    -0.06600
C353        C  0.14554576  0.62193255  0.62598117    -0.17800
C354        C  0.12456863  0.59750332  0.59039959     0.10600
S355        S  0.03319680  0.62478257  0.71423359    -0.32800
S356        S  0.16090172  0.59038110  0.54206848    -0.32800
H357        H  0.12164625  0.59768089  0.51347625     0.28600
H358        H  0.05606960  0.66819034  0.72749571     0.28600
H359        H  0.01222802  0.57748967  0.63356614     0.19200
H360        H  0.18297803  0.63400205  0.62394220     0.19200
C361        C  0.31393176  0.75896456  0.38269216    -0.06600
C362        C  0.32475882  0.71599571  0.36013945    -0.17800
C363        C  0.29300901  0.69674281  0.32887070     0.10600
C364        C  0.24998988  0.72251208  0.31771286    -0.06600
C365        C  0.24005864  0.76646364  0.33973710    -0.17800
C366        C  0.27108232  0.78454670  0.37235110     0.10600
S367        S  0.30772068  0.63672315  0.30879310    -0.32800
S368        S  0.25315168  0.83937408  0.40047019    -0.32800
H369        H  0.30008326  0.85504778  0.41184944     0.28600
H370        H  0.25998322  0.61864722  0.31075741     0.28600
H371        H  0.35726756  0.69589120  0.36870486     0.19200
H372        H  0.20755849  0.78683964  0.33187435     0.19200
C373        C  0.25639835  0.71519797  0.67820841    -0.06600
C374        C  0.28804318  0.68073537  0.65999250    -0.17800
C375        C  0.32083451  0.69361354  0.62702345     0.10600
C376        C  0.32190693  0.74216585  0.61153161    -0.06600
C377        C  0.29070283  0.77674428  0.63001239    -0.17800
C378        C  0.25810128  0.76389058  0.66325442     0.10600
S379        S  0.35871272  0.64587065  0.60519922    -0.32800
S380        S  0.22021913  0.81031431  0.68723146    -0.32800
H381        H  0.23979590  0.85018784  0.66430254     0.28600
H382        H  0.39583391  0.67555414  0.58850716     0.28600
H383        H  0.28647740  0.64317940  0.67094957     0.19200
H384        H  0.29213706  0.81395481  0.61825497     0.19200
C385        C  0.79938016  0.43332347  0.11270870    -0.06600
C386        C  0.84599230  0.43091533  0.13081087    -0.17800
C387        C  0.85580644  0.40153179  0.16743213     0.10600
C388        C  0.81719948  0.37612457  0.18853825    -0.06600
C389        C  0.77119306  0.37660546  0.16797336    -0.17800
C390        C  0.76221192  0.40424799  0.13045178     0.10600
S391        S  0.91806580  0.39675514  0.18606104    -0.32800
S392        S  0.70184157  0.40230414  0.10744860    -0.32800
H393        H  0.71598035  0.41033878  0.06394989     0.28600
H394        H  0.93885956  0.42866667  0.15535504     0.28600
H395        H  0.87455817  0.45267670  0.11632313     0.19200
H396        H  0.74159969  0.35463851  0.17980968     0.19200
C397        C  0.79977092  0.43558956  0.88274930    -0.06600
C398        C  0.82294830  0.45750376  0.84700539    -0.17800
C399        C  0.83084770  0.43217321  0.80812170     0.10600
C400        C  0.82647104  0.38033267  0.80732154    -0.06600
C401        C  0.80468632  0.35801176  0.84398790    -0.17800
C402        C  0.78913053  0.38514924  0.88031365     0.10600
S403        S  0.83418501  0.47076423  0.76042463    -0.32800
S404        S  0.75320662  0.35370325  0.92067620    -0.32800
H405        H  0.72393245  0.39386777  0.93136282     0.28600
H406        H  0.80404456  0.44070158  0.73476104     0.28600
H407        H  0.82955778  0.49648505  0.84751987     0.19200
H408        H  0.79698063  0.31927586  0.84324598     0.19200
C409        C  0.37527820  0.17833935  0.68929606    -0.06600
C410        C  0.37731603  0.14515900  0.65401897    -0.17800
C411        C  0.41233058  0.14914984  0.62104992     0.10600
C412        C  0.44517232  0.18873115  0.62129466    -0.06600
C413        C  0.44356833  0.22179804  0.65605740    -0.17800
C414        C  0.41175130  0.21542241  0.69109828     0.10600
S415        S  0.41468383  0.10118360  0.58078167    -0.32800
S416        S  0.42332903  0.25454959  0.73745554    -0.32800
H417        H  0.42036455  0.21767247  0.76907052     0.28600
H418        H  0.46525859  0.10310200  0.57484189     0.28600
H419        H  0.35360458  0.11372941  0.65316426     0.19200
H420        H  0.46936154  0.25169716  0.65699871     0.19200
C421        C  0.36135131  0.10666659  0.83837788    -0.06600
C422        C  0.37668808  0.13783258  0.87199197    -0.17800
C423        C  0.40252363  0.12002567  0.90806307     0.10600
C424        C  0.41387120  0.06981803  0.91044641    -0.06600
C425        C  0.39681981  0.03845940  0.87747623    -0.17800
C426        C  0.37078297  0.05633216  0.84158672     0.10600
S427        S  0.41941629  0.16313706  0.94993013    -0.32800
S428        S  0.35209666  0.01353965  0.80015710    -0.32800
H429        H  0.30902449  0.03804686  0.78928587     0.28600
H430        H  0.41459933  0.13020898  0.98490788     0.28600
H431        H  0.36931183  0.17648750  0.86972971     0.19200
H432        H  0.40519850  0.99990148  0.87892860     0.19200
C433        C  0.37243139  0.18321678  0.32475299    -0.06600
C434        C  0.39874025  0.14345630  0.34200250    -0.17800
C435        C  0.43155693  0.14926617  0.37642148     0.10600
C436        C  0.43890908  0.19595320  0.39433368    -0.06600
C437        C  0.40916958  0.23449877  0.38082549    -0.17800
C438        C  0.37398285  0.22786500  0.34827221     0.10600
S439        S  0.46441637  0.09619042  0.39475086    -0.32800
S440        S  0.32822886  0.27453311  0.34440426    -0.32800
H441        H  0.29056733  0.24210192  0.33319370     0.28600
H442        H  0.46944930  0.11103571  0.43846923     0.28600
H443        H  0.39481522  0.10755944  0.32764012     0.19200
H444        H  0.41218409  0.26949613  0.39705500     0.19200
C445        C  0.42901829  0.07422765  0.10041046    -0.06600
C446        C  0.38694921  0.05071429  0.11623082    -0.17800
C447        C  0.36138660  0.06860171  0.15233122     0.10600
C448        C  0.37781330  0.11103174  0.17363416    -0.06600
C449        C  0.41963183  0.13445325  0.15819205    -0.17800
C450        C  0.44478566  0.11743457  0.12175520     0.10600
S451        S  0.30948506  0.03449242  0.17092656    -0.32800
S452        S  0.49559277  0.15405133  0.10435828    -0.32800
H453        H  0.52925554  0.11611601  0.10911092     0.28600
H454        H  0.31981844  0.04139380  0.21541110     0.28600
H455        H  0.37389886  0.01767944  0.10073566     0.19200
H456        H  0.43312844  0.16656572  0.17466017     0.19200
C457        C  0.55338694  0.82072622  0.37790681    -0.06600
C458        C  0.55090202  0.78627461  0.34415055    -0.17800
C459        C  0.58098888  0.78910705  0.30745816     0.10600
C460        C  0.61928631  0.82423521  0.30606985    -0.06600
C461        C  0.62079397  0.85924652  0.33998732    -0.17800
C462        C  0.58821361  0.85836843  0.37505404     0.10600
S463        S  0.56488501  0.74843945  0.26330541    -0.32800
S464        S  0.59202951  0.90760842  0.41404591    -0.32800
H465        H  0.54250528  0.90806122  0.42493588     0.28600
H466        H  0.57159829  0.78265964  0.22978249     0.28600
H467        H  0.52330970  0.75806031  0.34541417     0.19200
H468        H  0.64573384  0.88962210  0.33843290     0.19200
C469        C  0.63909846  0.89593834  0.15659977    -0.06600
C470        C  0.62884643  0.94566655  0.16225310    -0.17800
C471        C  0.60443736  0.97238242  0.12986706     0.10600
C472        C  0.59038049  0.94917121  0.09056841    -0.06600
C473        C  0.60297830  0.90022729  0.08410871    -0.17800
C474        C  0.62674211  0.87348212  0.11660447     0.10600
S475        S  0.58878859  0.03452095  0.14211716    -0.32800
S476        S  0.63627347  0.80984879  0.10646288    -0.32800
H477        H  0.61400564  0.79589766  0.14582497     0.28600
H478        H  0.54105574  0.03036039  0.12612343     0.28600
H479        H  0.63791951  0.96319206  0.19295229     0.19200
H480        H  0.59234694  0.88204445  0.05411222     0.19200
C481        C  0.71040972  0.74829325  0.17771293    -0.06600
C482        C  0.67365233  0.71481359  0.16647689    -0.17800
C483        C  0.68036188  0.68012483  0.13356096     0.10600
C484        C  0.72595355  0.67634257  0.11294267    -0.06600
C485        C  0.76344174  0.70814529  0.12535235    -0.17800
C486        C  0.75616763  0.74415612  0.15708253     0.10600
S487        S  0.62892104  0.64266672  0.11881533    -0.32800
S488        S  0.80744836  0.78199986  0.17069001    -0.32800
H489        H  0.79634464  0.78357944  0.21524832     0.28600
H490        H  0.64255634  0.63392166  0.07533837     0.28600
H491        H  0.63822294  0.71762542  0.18153921     0.19200
H492        H  0.79868836  0.70490433  0.10998891     0.19200
C493        C  0.56212755  0.81108244  0.60775776    -0.06600
C494        C  0.57570183  0.85705560  0.62339001    -0.17800
C495        C  0.60322993  0.86215809  0.66185811     0.10600
C496        C  0.61808078  0.81993915  0.68553907    -0.06600
C497        C  0.60624078  0.77388411  0.66763785    -0.17800
C498        C  0.57851289  0.76912883  0.62963291     0.10600
S499        S  0.61766416  0.92317519  0.68051928    -0.32800
S500        S  0.56243680  0.70816684  0.61248918    -0.32800
H501        H  0.55697445  0.71840013  0.56784266     0.28600
H502        H  0.58887814  0.94869451  0.65020545     0.28600
H503        H  0.56271363  0.88905094  0.60629409     0.19200
H504        H  0.61741120  0.74040793  0.68272879     0.19200
C505        C  0.62262032  0.89011408  0.83896315    -0.06600
C506        C  0.60390117  0.93671909  0.82992798    -0.17800
C507        C  0.58105159  0.96448273  0.86231771     0.10600
C508        C  0.57614848  0.94513019  0.90481047    -0.06600
C509        C  0.59577557  0.89927696  0.91420945    -0.17800
C510        C  0.61964996  0.87190779  0.88215489     0.10600
S511        S  0.55759612  0.02338070  0.84690846    -0.32800
S512        S  0.64352116  0.81307887  0.89706757    -0.32800
H513        H  0.63724491  0.81730290  0.94250088     0.28600
H514        H  0.51660227  0.02176417  0.87406745     0.28600
H515        H  0.60662660  0.95139344  0.79714098     0.19200
H516        H  0.59196325  0.88477156  0.94694560     0.19200
C517        C  0.69511135  0.74327421  0.82221954    -0.06600
C518        C  0.74263770  0.73931646  0.83820765    -0.17800
C519        C  0.75506801  0.70349938  0.86876868     0.10600
C520        C  0.71877354  0.67187316  0.88501102    -0.06600
C521        C  0.67117370  0.67589850  0.86923093    -0.17800
C522        C  0.65891241  0.71088725  0.83772596     0.10600
S523        S  0.81746522  0.70113197  0.88670934    -0.32800
S524        S  0.59618681  0.71650666  0.82078763    -0.32800
H525        H  0.57773217  0.67749765  0.84557859     0.28600
H526        H  0.81799271  0.65139443  0.89764979     0.28600
H527        H  0.77034563  0.76423721  0.82660792     0.19200
H528        H  0.64352936  0.65190412  0.88230283     0.19200
C529        C  0.27924971  0.24044762  0.81898712    -0.06600
C530        C  0.31671120  0.26349146  0.84225061    -0.17800
C531        C  0.30683144  0.29734929  0.87516866     0.10600
C532        C  0.25812262  0.30708020  0.88678231    -0.06600
C533        C  0.22058915  0.28417167  0.86328699    -0.17800
C534        C  0.23062558  0.25279987  0.82831906     0.10600
S535        S  0.35818804  0.32630394  0.90122089    -0.32800
S536        S  0.18013943  0.23418699  0.79467609    -0.32800
H537        H  0.20721473  0.22271594  0.75724244     0.28600
H538        H  0.33475615  0.37009750  0.91197047     0.28600
H539        H  0.35415998  0.25520054  0.83447779     0.19200
H540        H  0.18317552  0.29269925  0.87096599     0.19200
C541        C  0.26522598  0.31206517  0.11619864    -0.06600
C542        C  0.31334678  0.31171050  0.13113358    -0.17800
C543        C  0.32873200  0.27909775  0.16351439     0.10600
C544        C  0.29478443  0.24621815  0.18225052    -0.06600
C545        C  0.24631861  0.24813078  0.16819939    -0.17800
C546        C  0.23125008  0.27982925  0.13505049     0.10600
S547        S  0.39212729  0.28206338  0.17829204    -0.32800
S548        S  0.16800320  0.27764005  0.11939381    -0.32800
H549        H  0.17159181  0.30172257  0.07910905     0.28600
H550        H  0.39631231  0.23448792  0.19375119     0.28600
H551        H  0.33935349  0.33676380  0.11688094     0.19200
H552        H  0.21956061  0.22531878  0.18363537     0.19200
C553        C  0.20525240  0.55863030  0.11340836    -0.06600
C554        C  0.15803542  0.57369404  0.12345353    -0.17800
C555        C  0.14878142  0.60618669  0.15810483     0.10600
C556        C  0.18795547  0.62507333  0.18362759    -0.06600
C557        C  0.23538997  0.60982170  0.17246961    -0.17800
C558        C  0.24427142  0.57747409  0.13797942     0.10600
S559        S  0.08621731  0.62079656  0.17042070    -0.32800
S560        S  0.30635040  0.55949914  0.12855492    -0.32800
H561        H  0.30185046  0.55184600  0.08338208     0.33400
H562        H  0.06486307  0.59694901  0.13450225     0.28600
H563        H  0.12816623  0.55847785  0.10483507     0.19200
H564        H  0.26657854  0.62109468  0.19108529     0.19200
C565        C  0.19758093  0.61984024  0.81238801    -0.06600
C566        C  0.16432524  0.61924901  0.84752809    -0.17800
C567        C  0.16858764  0.58668682  0.88259565     0.10600
C568        C  0.20818574  0.55421220  0.88447868    -0.06600
C569        C  0.24163749  0.55447261  0.85000285    -0.17800
C570        C  0.23524285  0.58415151  0.81313375     0.10600
S571        S  0.12046835  0.58680820  0.92252510    -0.32800
S572        S  0.27416004  0.57010121  0.76751695    -0.32800
H573        H  0.23706400  0.57122116  0.73601449     0.28600
H574        H  0.12188730  0.53658291  0.93155046     0.28600
H575        H  0.13235876  0.64193046  0.84677396     0.19200
H576        H  0.27131034  0.52857198  0.85045120     0.19200
C577        C  0.06723987  0.86987908  0.24763875    -0.06600
C578        C  0.04738771  0.83239501  0.27325725    -0.17800
C579        C  0.06851962  0.78597248  0.27457577     0.10600
C580        C  0.11144802  0.77677912  0.25088497    -0.06600
C581        C  0.13180314  0.81455585  0.22583381    -0.17800
C582        C  0.11028875  0.86093805  0.22411724     0.10600
S583        S  0.03763628  0.73933784  0.30519221    -0.32800
S584        S  0.13978045  0.90897566  0.19383924    -0.32800
H585        H  0.18692182  0.88996153  0.19864678     0.28600
H586        H  0.04662365  0.70255639  0.27430000     0.28600
H587        H  0.01435725  0.83896453  0.29147440     0.19200
H588        H  0.16505001  0.80791822  0.20799591     0.19200
C589        C  0.22679319  0.10816574  0.24916527    -0.06600
C590        C  0.19150291  0.12306708  0.21885448    -0.17800
C591        C  0.14433366  0.10427449  0.21931211     0.10600
C592        C  0.13190543  0.06751036  0.24960965    -0.06600
C593        C  0.16725621  0.05130939  0.27926276    -0.17800
C594        C  0.21455342  0.07032844  0.27894339     0.10600
S595        S  0.10118661  0.13094761  0.18187797    -0.32800
S596        S  0.25759695  0.04149769  0.31519683    -0.32800
H597        H  0.29844768  0.04895273  0.28872309     0.28600
H598        H  0.06182063  0.12917629  0.21103983     0.28600
H599        H  0.19993297  0.15067798  0.19514480     0.19200
H600        H  0.15850474  0.02211429  0.30180054     0.19200
C601        C  0.89268984  0.22718969  0.25825200    -0.06600
C602        C  0.88451983  0.19749439  0.22140389    -0.17800
C603        C  0.90760074  0.15253503  0.21615155     0.10600
C604        C  0.93757660  0.13407152  0.24985509    -0.06600
C605        C  0.94570746  0.16347229  0.28685709    -0.17800
C606        C  0.92504454  0.21015129  0.29087797     0.10600
S607        S  0.89599087  0.12049880  0.16592971    -0.32800
S608        S  0.94372079  0.24819862  0.33609594    -0.32800
H609        H  0.97736644  0.21577992  0.35479473     0.28600
H610        H  0.94473462  0.12352023  0.15251452     0.28600
H611        H  0.85968753  0.20923214  0.19604372     0.19200
H612        H  0.96961483  0.15026060  0.31233057     0.19200
C613        C  0.86974654  0.93620669  0.24411629    -0.06600
C614        C  0.85956452  0.89894968  0.27414995    -0.17800
C615        C  0.81544684  0.87341405  0.27303157     0.10600
C616        C  0.77960289  0.88622137  0.24167843    -0.06600
C617        C  0.78992902  0.92328009  0.21155390    -0.17800
C618        C  0.83405729  0.94863494  0.21272796     0.10600
S619        S  0.80902266  0.82377481  0.31144432    -0.32800
S620        S  0.84117954  0.99857976  0.17515114    -0.32800
H621        H  0.86353395  0.02907666  0.20621069     0.28600
H622        H  0.77618825  0.79555944  0.28706564     0.28600
H623        H  0.88687984  0.88857505  0.29793625     0.19200
H624        H  0.76262908  0.93382516  0.18780993     0.19200
C625        C  0.21907038  0.09894526  0.75097396    -0.06600
C626        C  0.18342513  0.11118086  0.78181889    -0.17800
C627        C  0.13645140  0.09222583  0.77997411     0.10600
C628        C  0.12425341  0.05740666  0.74785297    -0.06600
C629        C  0.15966852  0.04381395  0.71733756    -0.17800
C630        C  0.20694554  0.06324583  0.71893189     0.10600
S631        S  0.09307660  0.11639139  0.81833332    -0.32800
S632        S  0.25021715  0.03690462  0.68169970    -0.32800
H633        H  0.28970872  0.03935222  0.71076202     0.28600
H634        H  0.05431821  0.11751581  0.78828970     0.28600
H635        H  0.19117653  0.13706962  0.80731254     0.19200
H636        H  0.15111398  0.01611731  0.69325014     0.19200
C637        C  0.06241412  0.86034924  0.74749076    -0.06600
C638        C  0.09741632  0.85168543  0.78004835    -0.17800
C639        C  0.12678863  0.81001872  0.77937304     0.10600
C640        C  0.11881899  0.77361899  0.74725844    -0.06600
C641        C  0.08376643  0.78212777  0.71485502    -0.17800
C642        C  0.05651996  0.82532587  0.71380751     0.10600
S643        S  0.17639965  0.80826822  0.81793120    -0.32800
S644        S  0.01400633  0.83404336  0.66948747    -0.32800
H645        H  0.02791326  0.79356115  0.64428836     0.28600
H646        H  0.20917111  0.78545694  0.78935235     0.28600
H647        H  0.10389914  0.87899741  0.80498525     0.19200
H648        H  0.07745737  0.75452389  0.69022794     0.19200
C649        C  0.86218206  0.92524271  0.75494354    -0.06600
C650        C  0.83048687  0.93761626  0.78914519    -0.17800
C651        C  0.78378167  0.91697387  0.79230902     0.10600
C652        C  0.76893413  0.88143719  0.76152106    -0.06600
C653        C  0.80099839  0.86882930  0.72773768    -0.17800
C654        C  0.84674785  0.89038352  0.72389720     0.10600
S655        S  0.74277813  0.93937059  0.83361629    -0.32800
S656        S  0.88431555  0.86998653  0.67961187    -0.32800
H657        H  0.92554207  0.86587454  0.70642099     0.28600
H658        H  0.77189864  0.97830611  0.84822206     0.28600
H659        H  0.84191187  0.96469116  0.81278113     0.19200
H660        H  0.79056059  0.84130878  0.70410461     0.19200
C661        C  0.93178819  0.12415169  0.74981137    -0.06600
C662        C  0.94935437  0.15762421  0.71893050    -0.17800
C663        C  0.93207281  0.20554931  0.71708093     0.10600
C664        C  0.89500769  0.22078810  0.74588017    -0.06600
C665        C  0.87771618  0.18742223  0.77712686    -0.17800
C666        C  0.89525690  0.13940730  0.77912540     0.10600
S667        S  0.96145651  0.24619909  0.67931906    -0.32800
S668        S  0.86730036  0.09863733  0.81782392    -0.32800
H669        H  0.86794393  0.05774667  0.79008775     0.28600
H670        H  0.96356544  0.28475498  0.70950249     0.28600
H671        H  0.97803456  0.14677809  0.69681209     0.19200
H672        H  0.84886460  0.19823606  0.79904951     0.19200
loop_ 
_geom_bond_atom_site_label_1 
_geom_bond_atom_site_label_2 
_geom_bond_distance 
_geom_bond_site_symmetry_2 
_ccdc_geom_bond_type 
O1           Ni9   1.930   1_545  S
O1           C11   1.284       .  A
O2           Ni9   1.931   1_455  S
O2           C12   1.285       .  A
O3           Ni9   1.911   1_445  S
O3           C13   1.280       .  A
O4           Ni9   1.915       .  S
O4           C14   1.280       .  A
O5          Ni10   1.929       .  S
O5           C14   1.284       .  A
O6          Ni10   1.928   1_445  S
O6           C13   1.283       .  A
O7          Ni10   1.917   1_455  S
O7           C12   1.280       .  A
O8          Ni10   1.917   1_545  S
O8           C11   1.281       .  A
Ni9         Ni10   2.385       .  S
C11         C661   1.486       .  S
C12         C637   1.492       .  S
C13         C628   1.483       .  S
C14         C649   1.487       .  S
O15         Ni23   1.925   1_655  S
O15          C25   1.282       .  A
O16         Ni23   1.928   1_565  S
O16          C26   1.283       .  A
O17         Ni23   1.917   1_665  S
O17          C27   1.281       .  A
O18         Ni23   1.912       .  S
O18          C28   1.280       .  A
O19         Ni24   1.925       .  S
O19          C28   1.283       .  A
O20         Ni24   1.925   1_665  S
O20          C27   1.283       .  A
O21         Ni24   1.917   1_565  S
O21          C26   1.280       .  A
O22         Ni24   1.920   1_655  S
O22          C25   1.282       .  A
Ni23        Ni24   2.386       .  S
C25         C604   1.493       .  S
C26         C577   1.482       .  S
C27         C613   1.484       .  S
C28         C592   1.480       .  S
N29          C34   1.356   1_554  A
N29          C33   1.354       .  A
N29          H61   1.036       .  S
N30          C37   1.353       .  A
N30          C38   1.354       .  A
N31          C36   1.355       .  A
N31          C35   1.355   1_556  A
N31          H62   1.039   1_556  S
N32          C39   1.354       .  A
N32          C40   1.353       .  A
C33          C41   1.388       .  A
C33          C49   1.419       .  A
C34          C50   1.421       .  A
C34          C42   1.388       .  A
C35          C43   1.386       .  A
C35          C52   1.418       .  A
C36          C51   1.420       .  A
C36          C44   1.387       .  A
C37          C49   1.417       .  A
C37          C45   1.387       .  A
C38          C52   1.417       .  A
C38          C46   1.386       .  A
C39          C47   1.387       .  A
C39          C50   1.417       .  A
C40          C48   1.386       .  A
C40          C51   1.418       .  A
C41          C42   1.375   1_554  A
C41          H53   1.082       .  S
C42          H54   1.082       .  S
C43          C44   1.377   1_554  A
C43          H55   1.082       .  S
C44          H56   1.082       .  S
C45          C46   1.373       .  A
C45          H57   1.082       .  S
C46          H58   1.082       .  S
C47          C48   1.370       .  A
C47          H59   1.081       .  S
C48          H60   1.082       .  S
C49         C541   1.487       .  S
C50         C532   1.494       .  S
C51         C568   1.501       .  S
C52         C553   1.496       .  S
C63          C64   1.531       .  S
C63          C69   1.542       .  S
C63          C67   1.548       .  S
C63         C496   1.543       .  S
C64          H71   1.086       .  S
C64          C65   1.367       .  D
C65          C66   1.545       .  S
C65         C652   1.495       .  S
C66          C70   1.540       .  S
C66          C68   1.537       .  S
C66          H72   1.109       .  S
C67          H73   1.079       .  S
C67          C68   1.362       .  D
C68         C517   1.483       .  S
C69          H74   1.086       .  S
C69          C70   1.369       .  D
C70         C505   1.492       .  S
C75          C76   1.533       .  S
C75          C81   1.545       .  S
C75          C79   1.545       .  S
C75         C460   1.542       .  S
C76          H83   1.087       .  S
C76          C77   1.361       .  D
C77          C78   1.539       .  S
C77         C469   1.486       .  S
C78          C82   1.544       .  S
C78          C80   1.541       .  S
C78          H84   1.110       .  S
C79          H85   1.084       .  S
C79          C80   1.369       .  D
C80         C481   1.493       .  S
C81          H86   1.084       .  S
C81          C82   1.368       .  D
C82         C616   1.487       .  S
C87          C88   1.544       .  S
C87          C93   1.531       .  S
C87          C91   1.544       .  S
C87         C433   1.535       .  S
C88          H95   1.087       .  S
C88          C89   1.361       .  D
C89          C90   1.535       .  S
C89         C448   1.484       .  S
C90          C94   1.549       .  S
C90          C92   1.544       .  S
C90          H96   1.110       .  S
C91          H97   1.081       .  S
C91          C92   1.367       .  D
C92         C544   1.490       .  S
C93          H98   1.085       .  S
C93          C94   1.367       .  D
C94         C589   1.498       .  S
C99         C100   1.548       .  S
C99         C105   1.534       .  S
C99         C103   1.541       .  S
C99         C409   1.539       .  S
C100        H107   1.082       .  S
C100        C101   1.376       .  D
C101        C102   1.553       .  S
C101        C625   1.506       .  S
C102        C106   1.530       .  S
C102        C104   1.538       .  S
C102        H108   1.108       .  S
C103        H109   1.084       .  S
C103        C104   1.363       .  D
C104        C529   1.482       .  S
C105        H110   1.087       .  S
C105        C106   1.356       .  D
C106        C421   1.477       .  S
O111       Ni119   1.913       .  S
O111        C121   1.281       .  A
O112       Ni119   1.916   1_546  S
O112        C122   1.281       .  A
O113       Ni119   1.912   1_556  S
O113        C123   1.280       .  A
O114       Ni119   1.917   1_545  S
O114        C124   1.282       .  A
O115       Ni120   1.917   1_554  S
O115        C124   1.280       .  A
O116       Ni120   1.924       .  S
O116        C123   1.282   1_545  A
O117       Ni120   1.921       .  S
O117        C122   1.282       .  A
O118       Ni120   1.930   1_554  S
O118        C121   1.283   1_545  A
Ni119      Ni120   2.387   1_564  S
C121        C472   1.479       .  S
C122        C424   1.479       .  S
C123        C508   1.474       .  S
C124        C445   1.493       .  S
N125        C130   1.353   1_556  A
N125        C129   1.352       .  A
N125        H157   1.037   1_556  S
N126        C133   1.352       .  A
N126        C134   1.352       .  A
N127        C132   1.353   1_556  A
N127        C131   1.356       .  A
N127        H158   1.040       .  S
N128        C135   1.354       .  A
N128        C136   1.352       .  A
C129        C137   1.388       .  A
C129        C145   1.416       .  A
C130        C146   1.416       .  A
C130        C138   1.387       .  A
C131        C139   1.387       .  A
C131        C148   1.420       .  A
C132        C147   1.416       .  A
C132        C140   1.386       .  A
C133        C145   1.413       .  A
C133        C141   1.386       .  A
C134        C148   1.419       .  A
C134        C142   1.388       .  A
C135        C143   1.385       .  A
C135        C146   1.415       .  A
C136        C144   1.388       .  A
C136        C147   1.416       .  A
C137        C138   1.375   1_556  A
C137        H149   1.082       .  S
C138        H150   1.082       .  S
C139        C140   1.379   1_556  A
C139        H151   1.082       .  S
C140        H152   1.082       .  S
C141        C142   1.372       .  A
C141        H153   1.082       .  S
C142        H154   1.082       .  S
C143        C144   1.371       .  A
C143        H155   1.082       .  S
C144        H156   1.082       .  S
C145        C520   1.486       .  S
C146        C484   1.489       .  S
C147        C385   1.488       .  S
C148        C397   1.506       .  S
N159        C164   1.354       .  A
N159        C163   1.353       .  A
N159        H191   1.039       .  S
N160        C167   1.351       .  A
N160        C168   1.352       .  A
N161        C166   1.352       .  A
N161        C165   1.354       .  A
N161        H192   1.040       .  S
N162        C169   1.352       .  A
N162        C170   1.351       .  A
C163        C171   1.387       .  A
C163        C179   1.416       .  A
C164        C180   1.415       .  A
C164        C172   1.387       .  A
C165        C173   1.388       .  A
C165        C182   1.418       .  A
C166        C181   1.414       .  A
C166        C174   1.386       .  A
C167        C179   1.412       .  A
C167        C175   1.385       .  A
C168        C182   1.416       .  A
C168        C176   1.387       .  A
C169        C177   1.386       .  A
C169        C180   1.413       .  A
C170        C178   1.387       .  A
C170        C181   1.413       .  A
C171        C172   1.378       .  A
C171        H183   1.082       .  S
C172        H184   1.082       .  S
C173        C174   1.377       .  A
C173        H185   1.082       .  S
C174        H186   1.082       .  S
C175        C176   1.373       .  A
C175        H187   1.082       .  S
C176        H188   1.082       .  S
C177        C178   1.370       .  A
C177        H189   1.082       .  S
C178        H190   1.082       .  S
C179        C361   1.487       .  S
C180        C376   1.488       .  S
C181        C493   1.485       .  S
C182        C457   1.498       .  S
C193        C194   1.535       .  S
C193        C199   1.549       .  S
C193        C197   1.548       .  S
C193        C565   1.545       .  S
C194        H201   1.087       .  S
C194        C195   1.361       .  D
C195        C196   1.535       .  S
C195        C352   1.481       .  S
C196        C200   1.543       .  S
C196        C198   1.533       .  S
C196        H202   1.110       .  S
C197        H203   1.084       .  S
C197        C198   1.368       .  D
C198        C373   1.486       .  S
C199        H204   1.083       .  S
C199        C200   1.369       .  D
C200        C640   1.494       .  S
C205        C206   1.540       .  S
C205        C211   1.541       .  S
C205        C209   1.553       .  S
C205        C556   1.551       .  S
C206        H213   1.086       .  S
C206        C207   1.368       .  D
C207        C208   1.544       .  S
C207        C580   1.489       .  S
C208        C212   1.534       .  S
C208        C210   1.540       .  S
C208        H214   1.110       .  S
C209        H215   1.079       .  S
C209        C210   1.370       .  D
C210        C364   1.497       .  S
C211        H216   1.086       .  S
C211        C212   1.363       .  D
C212        C337   1.488       .  S
C217        C218   1.533       .  S
C217        C223   1.538       .  S
C217        C221   1.550       .  S
C217        C388   1.544       .  S
C218        H225   1.086       .  S
C218        C219   1.370       .  D
C219        C220   1.549       .  S
C219        C601   1.503       .  S
C220        C224   1.539       .  S
C220        C222   1.540       .  S
C220        H226   1.106       .  S
C221        H227   1.081       .  S
C221        C222   1.367       .  D
C222        C325   1.496       .  S
C223        H228   1.086       .  S
C223        C224   1.363       .  D
C224        C313   1.480       .  S
C229        C230   1.540       .  S
C229        C235   1.546       .  S
C229        C233   1.537       .  S
C229        C400   1.544       .  S
C230        H237   1.080       .  S
C230        C231   1.360       .  D
C231        C232   1.539       .  S
C231        C289   1.489       .  S
C232        C236   1.548       .  S
C232        C234   1.542       .  S
C232        H238   1.109       .  S
C233        H239   1.086       .  S
C233        C234   1.365       .  D
C234        C301   1.494       .  S
C235        H240   1.086       .  S
C235        C236   1.374       .  D
C236        C664   1.495       .  S
O241       Ni249   1.915       .  S
O241        C251   1.281       .  A
O242       Ni249   1.924   1_455  S
O242        C252   1.282       .  A
O243       Ni249   1.910       .  S
O243        C253   1.280       .  A
O244       Ni249   1.923   1_455  S
O244        C254   1.282       .  A
O245       Ni250   1.927       .  S
O245        C254   1.283       .  A
O246       Ni250   1.929       .  S
O246        C253   1.283   1_455  A
O247       Ni250   1.913       .  S
O247        C252   1.280       .  A
O248       Ni250   1.917       .  S
O248        C251   1.280   1_455  A
Ni249      Ni250   2.390   1_655  S
C251        C292   1.470       .  S
C252        C340   1.474       .  S
C253        C316   1.482       .  S
C254        C349   1.485       .  S
N255        C260   1.353       .  A
N255        C259   1.353       .  A
N255        H287   1.043       .  S
N256        C263   1.350       .  A
N256        C264   1.351       .  A
N257        C262   1.351       .  A
N257        C261   1.354       .  A
N257        H288   1.041       .  S
N258        C265   1.352       .  A
N258        C266   1.351       .  A
C259        C267   1.388       .  A
C259        C275   1.417       .  A
C260        C276   1.416       .  A
C260        C268   1.387       .  A
C261        C269   1.386       .  A
C261        C278   1.415       .  A
C262        C277   1.413       .  A
C262        C270   1.387       .  A
C263        C275   1.413       .  A
C263        C271   1.386       .  A
C264        C278   1.416       .  A
C264        C272   1.387       .  A
C265        C273   1.386       .  A
C265        C276   1.413       .  A
C266        C274   1.387       .  A
C266        C277   1.414       .  A
C267        C268   1.377       .  A
C267        H279   1.082       .  S
C268        H280   1.083       .  S
C269        C270   1.374       .  A
C269        H281   1.082       .  S
C270        H282   1.081       .  S
C271        C272   1.374       .  A
C271        H283   1.082       .  S
C272        H284   1.082       .  S
C273        C274   1.374       .  A
C273        H285   1.082       .  S
C274        H286   1.082       .  S
C275        C304   1.487       .  S
C276        C328   1.489       .  S
C277        C436   1.483       .  S
C278        C412   1.496       .  S
C289        C290   1.407       .  A
C289        C294   1.414       .  A
C290        C291   1.400       .  A
C290        H299   1.084       .  S
C291        C292   1.410       .  A
C291        S295   1.803   1_655  S
C292        C293   1.399       .  A
C293        C294   1.397       .  A
C293        H300   1.085       .  S
C294        S296   1.793       .  S
S295        H298   1.405       .  S
S296        H297   1.406       .  S
C301        C302   1.407       .  A
C301        C306   1.415       .  A
C302        C303   1.399       .  A
C302        H311   1.083       .  S
C303        C304   1.411       .  A
C303        S307   1.805       .  S
C304        C305   1.401       .  A
C305        C306   1.404       .  A
C305        H312   1.083       .  S
C306        S308   1.805       .  S
S307        H310   1.404       .  S
S308        H309   1.406       .  S
C313        C314   1.403       .  A
C313        C318   1.409       .  A
C314        C315   1.403       .  A
C314        H323   1.084       .  S
C315        C316   1.417       .  A
C315        S319   1.803   1_655  S
C316        C317   1.405       .  A
C317        C318   1.398       .  A
C317        H324   1.084       .  S
C318        S320   1.799       .  S
S319        H322   1.404       .  S
S320        H321   1.406       .  S
C325        C326   1.408       .  A
C325        C330   1.415       .  A
C326        C327   1.400       .  A
C326        H335   1.083       .  S
C327        C328   1.412       .  A
C327        S331   1.807       .  S
C328        C329   1.402       .  A
C329        C330   1.402       .  A
C329        H336   1.084       .  S
C330        S332   1.801       .  S
S331        H334   1.403       .  S
S332        H333   1.406       .  S
C337        C338   1.405       .  A
C337        C342   1.413       .  A
C338        C339   1.403       .  A
C338        H347   1.084       .  S
C339        C340   1.414       .  A
C339        S343   1.804   1_455  S
C340        C341   1.398       .  A
C341        C342   1.398       .  A
C341        H348   1.080       .  S
C342        S344   1.799       .  S
S343        H346   1.400       .  S
S344        H345   1.407       .  S
C349        C350   1.406       .  A
C349        C354   1.415       .  A
C350        C351   1.403       .  A
C350        H359   1.084       .  S
C351        C352   1.412       .  A
C351        S355   1.804       .  S
C352        C353   1.401       .  A
C353        C354   1.402       .  A
C353        H360   1.084       .  S
C354        S356   1.799       .  S
S355        H358   1.405       .  S
S356        H357   1.404       .  S
C361        C362   1.399       .  A
C361        C366   1.410       .  A
C362        C363   1.398       .  A
C362        H371   1.084       .  S
C363        C364   1.422       .  A
C363        S367   1.805       .  S
C364        C365   1.409       .  A
C365        C366   1.402       .  A
C365        H372   1.083       .  S
C366        S368   1.804       .  S
S367        H370   1.406       .  S
S368        H369   1.405       .  S
C373        C374   1.404       .  A
C373        C378   1.412       .  A
C374        C375   1.401       .  A
C374        H383   1.084       .  S
C375        C376   1.414       .  A
C375        S379   1.806       .  S
C376        C377   1.402       .  A
C377        C378   1.403       .  A
C377        H384   1.083       .  S
C378        S380   1.806       .  S
S379        H382   1.403       .  S
S380        H381   1.407       .  S
C385        C386   1.399       .  A
C385        C390   1.407       .  A
C386        C387   1.406       .  A
C386        H395   1.083       .  S
C387        C388   1.426       .  A
C387        S391   1.811       .  S
C388        C389   1.414       .  A
C389        C390   1.398       .  A
C389        H396   1.076       .  S
C390        S392   1.805       .  S
S391        H394   1.406       .  S
S392        H393   1.406       .  S
C397        C398   1.403       .  A
C397        C402   1.416       .  A
C398        C399   1.396       .  A
C398        H407   1.084       .  S
C399        C400   1.427       .  A
C399        S403   1.806       .  S
C400        C401   1.413       .  A
C401        C402   1.407       .  A
C401        H408   1.083       .  S
C402        S404   1.803       .  S
S403        H406   1.407       .  S
S404        H405   1.406       .  S
C409        C410   1.414       .  A
C409        C414   1.429       .  A
C410        C411   1.402       .  A
C410        H419   1.081       .  S
C411        C412   1.412       .  A
C411        S415   1.805       .  S
C412        C413   1.399       .  A
C413        C414   1.398       .  A
C413        H420   1.084       .  S
C414        S416   1.807       .  S
S415        H418   1.406       .  S
S416        H417   1.402       .  S
C421        C422   1.402       .  A
C421        C426   1.409       .  A
C422        C423   1.400       .  A
C422        H431   1.082       .  S
C423        C424   1.415       .  A
C423        S427   1.803       .  S
C424        C425   1.405       .  A
C425        C426   1.399       .  A
C425        H432   1.084   1_545  S
C426        S428   1.802       .  S
S427        H430   1.407       .  S
S428        H429   1.404       .  S
C433        C434   1.412       .  A
C433        C438   1.421       .  A
C434        C435   1.395       .  A
C434        H443   1.084       .  S
C435        C436   1.407       .  A
C435        S439   1.804       .  S
C436        C437   1.401       .  A
C437        C438   1.400       .  A
C437        H444   1.084       .  S
C438        S440   1.802       .  S
S439        H442   1.405       .  S
S440        H441   1.407       .  S
C445        C446   1.412       .  A
C445        C450   1.420       .  A
C446        C447   1.401       .  A
C446        H455   1.083       .  S
C447        C448   1.407       .  A
C447        S451   1.801       .  S
C448        C449   1.401       .  A
C449        C450   1.396       .  A
C449        H456   1.080       .  S
C450        S452   1.802       .  S
S451        H454   1.403       .  S
S452        H453   1.403       .  S
C457        C458   1.402       .  A
C457        C462   1.411       .  A
C458        C459   1.400       .  A
C458        H467   1.084       .  S
C459        C460   1.428       .  A
C459        S463   1.806       .  S
C460        C461   1.415       .  A
C461        C462   1.401       .  A
C461        H468   1.080       .  S
C462        S464   1.805       .  S
S463        H466   1.403       .  S
S464        H465   1.405       .  S
C469        C470   1.404       .  A
C469        C474   1.411       .  A
C470        C471   1.404       .  A
C470        H479   1.084       .  S
C471        C472   1.414       .  A
C471        S475   1.799   1_565  S
C472        C473   1.402       .  A
C473        C474   1.398       .  A
C473        H480   1.084       .  S
C474        S476   1.793       .  S
S475        H478   1.406       .  S
S476        H477   1.406       .  S
C481        C482   1.408       .  A
C481        C486   1.416       .  A
C482        C483   1.399       .  A
C482        H491   1.084       .  S
C483        C484   1.411       .  A
C483        S487   1.805       .  S
C484        C485   1.402       .  A
C485        C486   1.401       .  A
C485        H492   1.084       .  S
C486        S488   1.799       .  S
S487        H490   1.405       .  S
S488        H489   1.399       .  S
C493        C494   1.399       .  A
C493        C498   1.406       .  A
C494        C495   1.406       .  A
C494        H503   1.083       .  S
C495        C496   1.426       .  A
C495        S499   1.812       .  S
C496        C497   1.414       .  A
C497        C498   1.396       .  A
C497        H504   1.073       .  S
C498        S500   1.807       .  S
S499        H502   1.406       .  S
S500        H501   1.403       .  S
C505        C506   1.407       .  A
C505        C510   1.416       .  A
C506        C507   1.402       .  A
C506        H515   1.084       .  S
C507        C508   1.411       .  A
C507        S511   1.803   1_565  S
C508        C509   1.400       .  A
C509        C510   1.402       .  A
C509        H516   1.083       .  S
C510        S512   1.802       .  S
S511        H514   1.405       .  S
S512        H513   1.407       .  S
C517        C518   1.401       .  A
C517        C522   1.417       .  A
C518        C519   1.399       .  A
C518        H527   1.084       .  S
C519        C520   1.414       .  A
C519        S523   1.804       .  S
C520        C521   1.401       .  A
C521        C522   1.401       .  A
C521        H528   1.083       .  S
C522        S524   1.810       .  S
S523        H526   1.405       .  S
S524        H525   1.407       .  S
C529        C530   1.402       .  A
C529        C534   1.412       .  A
C530        C531   1.398       .  A
C530        H539   1.084       .  S
C531        C532   1.415       .  A
C531        S535   1.805       .  S
C532        C533   1.405       .  A
C533        C534   1.402       .  A
C533        H540   1.084       .  S
C534        S536   1.801       .  S
S535        H538   1.405       .  S
S536        H537   1.405       .  S
C541        C542   1.401       .  A
C541        C546   1.411       .  A
C542        C543   1.400       .  A
C542        H551   1.084       .  S
C543        C544   1.420       .  A
C543        S547   1.804       .  S
C544        C545   1.403       .  A
C545        C546   1.399       .  A
C545        H552   1.076       .  S
C546        S548   1.807       .  S
S547        H550   1.393       .  S
S548        H549   1.402       .  S
C553        C554   1.401       .  A
C553        C558   1.408       .  A
C554        C555   1.410       .  A
C554        H563   1.083       .  S
C555        C556   1.427       .  A
C555        S559   1.811       .  S
C556        C557   1.416       .  A
C557        C558   1.402       .  A
C557        H564   1.075       .  S
C558        S560   1.805       .  S
S559        H562   1.406       .  S
S560        H561   1.404       .  S
C565        C566   1.415       .  A
C565        C570   1.428       .  A
C566        C567   1.401       .  A
C566        H575   1.080       .  S
C567        C568   1.411       .  A
C567        S571   1.806       .  S
C568        C569   1.403       .  A
C569        C570   1.402       .  A
C569        H576   1.084       .  S
C570        S572   1.805       .  S
S571        H574   1.406       .  S
S572        H573   1.403       .  S
C577        C578   1.404       .  A
C577        C582   1.411       .  A
C578        C579   1.402       .  A
C578        H587   1.084       .  S
C579        C580   1.412       .  A
C579        S583   1.799       .  S
C580        C581   1.405       .  A
C581        C582   1.406       .  A
C581        H588   1.083       .  S
C582        S584   1.804       .  S
S583        H586   1.406       .  S
S584        H585   1.408       .  S
C589        C590   1.403       .  A
C589        C594   1.422       .  A
C590        C591   1.397       .  A
C590        H599   1.074       .  S
C591        C592   1.412       .  A
C591        S595   1.805       .  S
C592        C593   1.402       .  A
C593        C594   1.402       .  A
C593        H600   1.084       .  S
C594        S596   1.805       .  S
S595        H598   1.407       .  S
S596        H597   1.403       .  S
C601        C602   1.409       .  A
C601        C606   1.417       .  A
C602        C603   1.398       .  A
C602        H611   1.083       .  S
C603        C604   1.414       .  A
C603        S607   1.799       .  S
C604        C605   1.408       .  A
C605        C606   1.408       .  A
C605        H612   1.082       .  S
C606        S608   1.807       .  S
S607        H610   1.408       .  S
S608        H609   1.406       .  S
C613        C614   1.403       .  A
C613        C618   1.415       .  A
C614        C615   1.402       .  A
C614        H623   1.084       .  S
C615        C616   1.420       .  A
C615        S619   1.807       .  S
C616        C617   1.401       .  A
C617        C618   1.400       .  A
C617        H624   1.084       .  S
C618        S620   1.799       .  S
S619        H622   1.403       .  S
S620        H621   1.406   1_565  S
C625        C626   1.405       .  A
C625        C630   1.425       .  A
C626        C627   1.395       .  A
C626        H635   1.076       .  S
C627        C628   1.410       .  A
C627        S631   1.805       .  S
C628        C629   1.404       .  A
C629        C630   1.407       .  A
C629        H636   1.084       .  S
C630        S632   1.804       .  S
S631        H634   1.408       .  S
S632        H633   1.405       .  S
C637        C638   1.405       .  A
C637        C642   1.418       .  A
C638        C639   1.402       .  A
C638        H647   1.084       .  S
C639        C640   1.418       .  A
C639        S643   1.804       .  S
C640        C641   1.402       .  A
C641        C642   1.404       .  A
C641        H648   1.082       .  S
C642        S644   1.806       .  S
S643        H646   1.407       .  S
S644        H645   1.407       .  S
C649        C650   1.407       .  A
C649        C654   1.412       .  A
C650        C651   1.408       .  A
C650        H659   1.083       .  S
C651        C652   1.415       .  A
C651        S655   1.807       .  S
C652        C653   1.406       .  A
C653        C654   1.396       .  A
C653        H660   1.084       .  S
C654        S656   1.798       .  S
S655        H658   1.407       .  S
S656        H657   1.404       .  S
C661        C662   1.404       .  A
C661        C666   1.414       .  A
C662        C663   1.400       .  A
C662        H671   1.084       .  S
C663        C664   1.415       .  A
C663        S667   1.799       .  S
C664        C665   1.407       .  A
C665        C666   1.405       .  A
C665        H672   1.084       .  S
C666        S668   1.802       .  S
S667        H670   1.406       .  S
S668        H669   1.407       .  S
