geometry optimzed in LAMMPS
_audit_creation_date              2020-11-30 
_audit_creation_method            'lammps2cif' 
_symmetry_space_group_name_H-M    'P1' 
_symmetry_Int_Tables_number       1 
_symmetry_cell_setting            triclinic 
loop_ 
_symmetry_equiv_pos_as_xyz 
  x,y,z 
_cell_length_a                    26.443361991678096 
_cell_length_b                    26.61420711380089 
_cell_length_c                    46.29219753916939 
_cell_angle_alpha                 77.11827250008974 
_cell_angle_beta                  95.36849171466683 
_cell_angle_gamma                 110.52769340307755 
loop_ 
_atom_site_label 
_atom_site_type_symbol 
_atom_site_fract_x 
_atom_site_fract_y 
_atom_site_fract_z 
_atom_site_charge 
O1          O  0.85696084  0.95244829  0.48069194    -0.81410
O2          O  0.10512665  0.98531984  0.48830628    -0.66100
O3          O  0.95891460  0.95429905  0.00693900    -1.12700
C4          C  0.01044320  0.14335467  0.00300425     1.05480
O5          O  0.14216211  0.04728069  0.01612838    -0.79310
O6          O  0.06641319  0.04694951  0.05188361    -0.66890
Ni7        Ni  0.90309895  0.90885589  0.48484055     1.34870
C8          C  0.01821562  0.03043885  0.06070723     0.84210
O9          O  0.02435957  0.89367386  0.50421681    -0.79850
O10         O  0.94057691  0.85751612  0.48725974    -0.90120
C11         C  0.14568161  0.01402340  0.00110009     0.83790
O12         O  0.93091191  0.94714256  0.44661599    -0.68320
O13         O  0.05526591  0.13851022  0.01350639    -0.87610
C14         C  0.97914626  0.96722434  0.43772256     0.84620
C15         C  0.98618931  0.85384805  0.49688622     1.06180
H16         H  0.04375657  0.06138910  0.47086506     0.37990
O17         O  0.03844667  0.04409802  0.49157423    -1.10270
O18         O  0.97774994  0.02686738  0.04307974    -0.66920
Ni19       Ni  0.96513412  0.02938026  0.00103072     1.26350
O20         O  0.01964318  0.97236708  0.45539138    -0.67150
O21         O  0.97284900  0.10459130  0.99431936    -0.79440
C22         C  0.85160152  0.98384249  0.49628847     0.84000
O23         O  0.89146712  0.01230259  0.00980247    -0.66620
Ni24       Ni  0.09409960  0.08871731  0.01406889     1.27450
Ni25       Ni  0.03202127  0.96890298  0.49741519     1.26060
H26         H  0.95384500  0.93729767  0.02769517     0.38540
O27         O  0.86329521  0.96080669  0.23003575    -0.81410
O28         O  0.11112001  0.98923358  0.23793034    -0.66100
O29         O  0.96445604  0.95848835  0.25628197    -1.12700
C30         C  0.02094170  0.14864110  0.25388636     1.05480
O31         O  0.14359359  0.04313320  0.27010777    -0.79310
O32         O  0.07229305  0.05423971  0.30325449    -0.66890
Ni33       Ni  0.90751817  0.91492196  0.23405966     1.34870
C34         C  0.02394974  0.03320914  0.31191897     0.84210
O35         O  0.02840019  0.89666357  0.25184819    -0.79850
O36         O  0.94298887  0.86165903  0.23671865    -0.90120
C37         C  0.15034310  0.01535256  0.25275633     0.83790
O38         O  0.93611971  0.95234674  0.19578427    -0.68320
O39         O  0.06692867  0.14459129  0.26209659    -0.87610
C40         C  0.98449937  0.97139908  0.18703736     0.84620
C41         C  0.98869144  0.85694568  0.24540936     1.06180
H42         H  0.05034652  0.06566183  0.22185775     0.37990
O43         O  0.04496796  0.04753404  0.24244771    -1.10270
O44         O  0.98364886  0.02728947  0.29410998    -0.66920
Ni45       Ni  0.97215144  0.03382596  0.25189518     1.26350
O46         O  0.02517689  0.97772320  0.20459597    -0.67150
O47         O  0.98131015  0.10940478  0.24690204    -0.79440
C48         C  0.85939272  0.99257910  0.24594769     0.84000
O49         O  0.89910547  0.01790693  0.26058191    -0.66620
Ni50       Ni  0.10144131  0.09069248  0.26510405     1.27450
Ni51       Ni  0.03746603  0.97230282  0.24673286     1.26060
H52         H  0.95931558  0.94045815  0.27689463     0.38540
O53         O  0.85783785  0.45606160  0.48072763    -0.81410
O54         O  0.10571228  0.48490063  0.49062129    -0.66100
O55         O  0.95862191  0.45391836  0.00832029    -1.12700
C56         C  0.01158694  0.64252493  0.00631620     1.05480
O57         O  0.14112934  0.54365416  0.02054827    -0.79310
O58         O  0.06558555  0.54571217  0.05508113    -0.66890
Ni59       Ni  0.90237388  0.41012018  0.48573613     1.34870
C60         C  0.01718473  0.52703090  0.06368504     0.84210
O61         O  0.02355737  0.39306266  0.50429538    -0.79850
O62         O  0.93813121  0.35700387  0.48923937    -0.90120
C63         C  0.14524493  0.51144491  0.00503325     0.83790
O64         O  0.93198778  0.44660034  0.44748416    -0.68320
O65         O  0.05668123  0.63779893  0.01637823    -0.87610
C66         C  0.98057034  0.46722534  0.43886891     0.84620
C67         C  0.98411846  0.35314849  0.49794077     1.06180
H68         H  0.04468888  0.56159542  0.47393690     0.37990
O69         O  0.03893996  0.54340893  0.49450172    -1.10270
O70         O  0.97697044  0.52383414  0.04585977    -0.66920
Ni71       Ni  0.96544236  0.52884662  0.00355733     1.26350
O72         O  0.02045247  0.47428705  0.45693755    -0.67150
O73         O  0.97374390  0.60395101  0.99769508    -0.79440
C74         C  0.85226628  0.48650794  0.99696434     0.84000
O75         O  0.89154297  0.51207084  0.01193525    -0.66620
Ni76       Ni  0.09448180  0.58688743  0.01754347     1.27450
Ni77       Ni  0.03197247  0.46832872  0.49908770     1.26060
H78         H  0.95319338  0.43604828  0.02894510     0.38540
O79         O  0.85131375  0.44769224  0.23467263    -0.81410
O80         O  0.10224269  0.47951537  0.24188822    -0.66100
O81         O  0.95556537  0.45340598  0.25832202    -1.12700
C82         C  0.00924568  0.64270042  0.25264242     1.05480
O83         O  0.14071802  0.54757755  0.26596162    -0.79310
O84         O  0.06270186  0.54244559  0.30224914    -0.66890
Ni85       Ni  0.90041482  0.40796254  0.23590855     1.34870
C86         C  0.01454723  0.52840498  0.31089237     0.84210
O87         O  0.01920143  0.38973702  0.25795443    -0.79850
O88         O  0.93981561  0.35923539  0.23524049    -0.90120
C89         C  0.14343311  0.51144125  0.25282880     0.83790
O90         O  0.92835354  0.45177789  0.19870195    -0.68320
O91         O  0.05150157  0.63532406  0.26565042    -0.87610
C92         C  0.97633445  0.46685748  0.18980315     0.84620
C93         C  0.98311638  0.35278294  0.24704368     1.06180
H94         H  0.04344918  0.55795380  0.22144683     0.37990
O95         O  0.03694747  0.54167258  0.24220425    -1.10270
O96         O  0.97557729  0.52890732  0.29256850    -0.66920
Ni97       Ni  0.96387434  0.52953798  0.25050829     1.26350
O98         O  0.01629191  0.46669410  0.20755602    -0.67150
O99         O  0.97366036  0.60551735  0.24173301    -0.79440
C100        C  0.84942759  0.48525308  0.24689585     0.84000
O101        O  0.89063169  0.51616231  0.25826897    -0.66620
Ni102      Ni  0.09125784  0.58678242  0.26506559     1.27450
Ni103      Ni  0.02873771  0.46563241  0.24971599     1.26060
H104        H  0.94942896  0.43746773  0.27913889     0.38540
O105        O  0.35821620  0.95680372  0.48132444    -0.81410
O106        O  0.60485085  0.98377669  0.48881420    -0.66100
O107        O  0.45852054  0.95254916  0.00783945    -1.12700
C108        C  0.51538603  0.14348191  0.00580301     1.05480
O109        O  0.63810555  0.03758057  0.02109922    -0.79310
O110        O  0.56764980  0.04979669  0.05454203    -0.66890
Ni111      Ni  0.40054320  0.90870038  0.48640944     1.34870
C112        C  0.51962215  0.02654362  0.06371163     0.84210
O113        O  0.52237573  0.89114080  0.50208838    -0.79850
O114        O  0.43471422  0.85406545  0.49032952    -0.90120
C115        C  0.64418990  0.00935442  0.00377280     0.83790
O116        O  0.42905212  0.94307900  0.44780732    -0.68320
O117        O  0.56180148  0.13953826  0.01268782    -0.87610
C118        C  0.47721965  0.96516447  0.43873687     0.84620
C119        C  0.48145316  0.85078344  0.49736974     1.06180
H120        H  0.54312366  0.06007643  0.47360936     0.37990
O121        O  0.53855935  0.04176800  0.49419869    -1.10270
O122        O  0.47867850  0.01932743  0.04642820    -0.66920
Ni123      Ni  0.46589188  0.02756590  0.00436124     1.26350
O124        O  0.51823784  0.97343196  0.45602182    -0.67150
O125        O  0.47483870  0.10318064  0.00051764    -0.79440
C126        C  0.35312201  0.98603114  0.99849300     0.84000
O127        O  0.39266602  0.01053306  0.01359907    -0.66620
Ni128      Ni  0.59599350  0.08532039  0.01609324     1.27450
Ni129      Ni  0.53130990  0.96665840  0.49792778     1.26060
H130        H  0.45401582  0.93407807  0.02834557     0.38540
O131        O  0.36674955  0.96418443  0.22892207    -0.81410
O132        O  0.60880707  0.98265930  0.24314054    -0.66100
O133        O  0.46292045  0.95744330  0.25904389    -1.12700
C134        C  0.51974054  0.14694352  0.25614721     1.05480
O135        O  0.64783922  0.04696540  0.26937680    -0.79310
O136        O  0.57152034  0.04715043  0.30491280    -0.66890
Ni137      Ni  0.40640453  0.91397810  0.23656292     1.34870
C138        C  0.52305570  0.03005329  0.31343771     0.84210
O139        O  0.52475682  0.89238519  0.25710570    -0.79850
O140        O  0.43861938  0.85781097  0.24226298    -0.90120
C141        C  0.65004330  0.01185239  0.25523845     0.83790
O142        O  0.43776728  0.94649790  0.19857692    -0.68320
O143        O  0.56363830  0.14059586  0.26710802    -0.87610
C144        C  0.48654207  0.96728345  0.19050625     0.84620
C145        C  0.48400713  0.85284366  0.25125210     1.06180
H146        H  0.55098364  0.06268017  0.22446427     0.37990
O147        O  0.54484778  0.04531072  0.24505697    -1.10270
O148        O  0.48320967  0.02892793  0.29554913    -0.66920
Ni149      Ni  0.47161286  0.03310873  0.25344904     1.26350
O150        O  0.52602695  0.97429744  0.20876091    -0.67150
O151        O  0.48140203  0.10908986  0.24708379    -0.79440
C152        C  0.35930322  0.99233617  0.24583916     0.84000
O153        O  0.39784974  0.01769511  0.26129953    -0.66620
Ni154      Ni  0.60078513  0.08935913  0.26756740     1.27450
Ni155      Ni  0.53577193  0.96900918  0.25087130     1.26060
H156        H  0.45661355  0.94020158  0.27970514     0.38540
O157        O  0.35799438  0.45902921  0.48116431    -0.81410
O158        O  0.60425718  0.48382775  0.49092444    -0.66100
O159        O  0.45702891  0.45270474  0.00847294    -1.12700
C160        C  0.51515267  0.64460894  0.00521412     1.05480
O161        O  0.63604545  0.53665500  0.02376938    -0.79310
O162        O  0.56664139  0.55725510  0.05535126    -0.66890
Ni163      Ni  0.40024672  0.41098455  0.48560174     1.34870
C164        C  0.51896128  0.53131620  0.06469117     0.84210
O165        O  0.52068010  0.39114273  0.50330337    -0.79850
O166        O  0.43471675  0.35677214  0.48853239    -0.90120
C167        C  0.64298155  0.50838449  0.00661890     0.83790
O168        O  0.43013177  0.44799359  0.44760669    -0.68320
O169        O  0.56271792  0.64256119  0.01020105    -0.87610
C170        C  0.47871439  0.46753058  0.43916848     0.84620
C171        C  0.48049601  0.35178484  0.49663099     1.06180
H172        H  0.54116945  0.55977584  0.47482613     0.37990
O173        O  0.53722266  0.54184506  0.49548618    -1.10270
O174        O  0.47789125  0.51796401  0.04781165    -0.66920
Ni175      Ni  0.46452670  0.52746465  0.00584917     1.26350
O176        O  0.51888471  0.47388762  0.45702916    -0.67150
O177        O  0.47362197  0.60295646  0.00296505    -0.79440
C178        C  0.35232234  0.48714140  0.49877833     0.84000
O179        O  0.39087404  0.50988357  0.01509113    -0.66620
Ni180      Ni  0.59551421  0.58666221  0.01640253     1.27450
Ni181      Ni  0.53014440  0.46678899  0.49918165     1.26060
H182        H  0.45149247  0.43333050  0.02885782     0.38540
O183        O  0.35451831  0.45137535  0.23219686    -0.81410
O184        O  0.60427150  0.48514282  0.24141234    -0.66100
O185        O  0.45702900  0.45425847  0.25849789    -1.12700
C186        C  0.50872782  0.64327538  0.25550021     1.05480
O187        O  0.63995342  0.54681754  0.26963939    -0.79310
O188        O  0.56244019  0.54511543  0.30452847    -0.66890
Ni189      Ni  0.40114618  0.40805901  0.23668749     1.34870
C190        C  0.51389168  0.52900969  0.31275088     0.84210
O191        O  0.52292748  0.39284346  0.25560528    -0.79850
O192        O  0.43827257  0.35639763  0.23969043    -0.90120
C193        C  0.64410854  0.51330234  0.25501687     0.83790
O194        O  0.42982036  0.44503827  0.19839372    -0.68320
O195        O  0.55268974  0.63770669  0.26700190    -0.87610
C196        C  0.47841446  0.46605050  0.18990181     0.84620
C197        C  0.48394167  0.35272980  0.24890402     1.06180
H198        H  0.54367415  0.56170506  0.22352929     0.37990
O199        O  0.53730202  0.54394957  0.24412145    -1.10270
O200        O  0.47437574  0.52664875  0.29453514    -0.66920
Ni201      Ni  0.46365190  0.52981825  0.25237274     1.26350
O202        O  0.51898914  0.47349206  0.20752771    -0.67150
O203        O  0.47196992  0.60540608  0.24556261    -0.79440
C204        C  0.34987985  0.48443353  0.24695614     0.84000
O205        O  0.38970991  0.51385025  0.25999819    -0.66620
Ni206      Ni  0.59175181  0.58808688  0.26737573     1.27450
Ni207      Ni  0.53059689  0.46853065  0.24961827     1.26060
H208        H  0.45168266  0.43751214  0.27927130     0.38540
C209        C  0.45666231  0.50995764  0.38853377    -0.20830
C210        C  0.48885362  0.48343040  0.40697287    -0.07390
C211        C  0.52865709  0.47117914  0.39423423     0.13480
C212        C  0.53534433  0.48616757  0.36343453    -0.20880
C213        C  0.50323569  0.51280355  0.34494837    -0.07400
C214        C  0.46350424  0.52519263  0.35772897     0.13470
C215        C  0.42952490  0.55622526  0.33935343    -0.24230
H216        H  0.42636732  0.51946714  0.39838624     0.14750
H217        H  0.56567081  0.47659753  0.35365280     0.14780
C218        C  0.56299142  0.44067979  0.41272750    -0.24180
H219        H  0.40335372  0.56545021  0.35336282     0.04990
H220        H  0.40265753  0.53151154  0.32397159     0.08220
H221        H  0.45603319  0.59580506  0.32654230     0.08220
H222        H  0.53673711  0.40111192  0.42567513     0.08200
H223        H  0.58966843  0.46573946  0.42801504     0.08200
H224        H  0.58936204  0.43155089  0.39879851     0.04980
C225        C  0.51305816  0.53778766  0.14527962    -0.20830
C226        C  0.48864169  0.48214955  0.15790301    -0.07390
C227        C  0.47537347  0.44265386  0.13998426     0.13480
C228        C  0.48598309  0.45988772  0.10956356    -0.20880
C229        C  0.51025730  0.51553615  0.09687540    -0.07400
C230        C  0.52367224  0.55506080  0.11482795     0.13470
C231        C  0.54718536  0.61543155  0.10171756    -0.24230
H232        H  0.52307044  0.56779906  0.15924191     0.14750
H233        H  0.47576571  0.42981769  0.09562470     0.14780
C234        C  0.45146983  0.38232622  0.15310580    -0.24180
H235        H  0.55328686  0.64069028  0.11872329     0.04990
H236        H  0.51941971  0.62749603  0.08425448     0.08220
H237        H  0.58695039  0.62474658  0.09187901     0.08220
H238        H  0.41185807  0.37338572  0.16303032     0.08200
H239        H  0.47916733  0.37004292  0.17053518     0.08200
H240        H  0.44501367  0.35699925  0.13610237     0.04980
C241        C  0.46709988  0.77012482  0.23073804    -0.20830
C242        C  0.48959273  0.79860511  0.25358062    -0.07390
C243        C  0.51604372  0.77455707  0.27774649     0.13480
C244        C  0.52176729  0.72407397  0.27757920    -0.20880
C245        C  0.50013216  0.69595047  0.25441986    -0.07400
C246        C  0.47159858  0.71907983  0.23087190     0.13470
C247        C  0.44715616  0.69143608  0.20527244    -0.24230
H248        H  0.44636403  0.78839881  0.21236600     0.14750
H249        H  0.54234957  0.70582599  0.29603292     0.14780
C250        C  0.53538311  0.80004830  0.30454427    -0.24180
H251        H  0.42923777  0.71708809  0.18815422     0.04990
H252        H  0.41430494  0.65226407  0.21321254     0.08220
H253        H  0.47870078  0.68358406  0.19453432     0.08220
H254        H  0.50100446  0.80510583  0.31419345     0.08200
H255        H  0.56722858  0.84054185  0.29849134     0.08200
H256        H  0.55252856  0.77415884  0.32196956     0.04980
C257        C  0.46107425  0.19963335  0.26102648    -0.20830
C258        C  0.51212940  0.20020692  0.25460762    -0.07390
C259        C  0.55399825  0.25124834  0.24651338     0.13480
C260        C  0.54357228  0.30006074  0.24507422    -0.20880
C261        C  0.49237744  0.29951374  0.25133329    -0.07400
C262        C  0.45066805  0.24837102  0.25968101     0.13470
C263        C  0.39555478  0.24443374  0.26822281    -0.24230
H264        H  0.42912279  0.16058766  0.26747006     0.14750
H265        H  0.57550294  0.33906700  0.23852057     0.14780
C266        C  0.60917733  0.25486001  0.23826594    -0.24180
H267        H  0.37000418  0.20138788  0.27666427     0.04990
H268        H  0.37427400  0.26102333  0.24868443     0.08220
H269        H  0.39951609  0.26743913  0.28607325     0.08220
H270        H  0.60541290  0.23291416  0.21996038     0.08200
H271        H  0.62936064  0.23661278  0.25774757     0.08200
H272        H  0.63565518  0.29800027  0.23068870     0.04980
C273        C  0.46362485  0.69895976  0.01729190    -0.20830
C274        C  0.50732934  0.69792780  0.00265125    -0.07390
C275        C  0.54223623  0.74746663  0.48611862     0.13480
C276        C  0.53277979  0.79663487  0.48495513    -0.20880
C277        C  0.48906082  0.79756775  0.49957733    -0.07400
C278        C  0.45420808  0.74814469  0.01611221     0.13470
C279        C  0.40838730  0.74729972  0.03350795    -0.24230
H280        H  0.43720558  0.66109792  0.03018217     0.14750
H281        H  0.55929447  0.83461392  0.47220229     0.14780
C282        C  0.58829655  0.74866326  0.46877825    -0.24180
H283        H  0.38721701  0.70566391  0.04650254     0.04990
H284        H  0.37824038  0.76021761  0.01826840     0.08220
H285        H  0.42422676  0.77541113  0.04926445     0.08220
H286        H  0.57279782  0.72029745  0.45313681     0.08200
H287        H  0.61877643  0.73644996  0.48405617     0.08200
H288        H  0.60908494  0.79029425  0.45565144     0.04980
C289        C  0.46061210  0.20474438  0.48969125    -0.20830
C290        C  0.50787757  0.19744125  0.00364257    -0.07390
C291        C  0.54576958  0.24142183  0.01525747     0.13480
C292        C  0.53516679  0.29044020  0.01252716    -0.20880
C293        C  0.48788744  0.29778540  0.49859669    -0.07400
C294        C  0.45003493  0.25382937  0.48693048     0.13470
C295        C  0.39853263  0.25765207  0.47112339    -0.24230
H296        H  0.43144636  0.17169736  0.48059773     0.14750
H297        H  0.56440364  0.32341517  0.02163696     0.14780
C298        C  0.59729984  0.23763590  0.03107759    -0.24180
H299        H  0.37513172  0.21993814  0.46274283     0.04990
H300        H  0.40808059  0.29238526  0.45172787     0.08220
H301        H  0.37210667  0.26311285  0.98656714     0.08220
H302        H  0.62391857  0.23255828  0.01559298     0.08200
H303        H  0.58779951  0.20269934  0.05036994     0.08200
H304        H  0.62053267  0.27522471  0.03961019     0.04980
C305        C  0.53087697  0.97227210  0.39617834    -0.20830
C306        C  0.48698525  0.98096255  0.40651578    -0.07390
C307        C  0.45479629  0.00527512  0.38611151     0.13480
C308        C  0.46767184  0.02047672  0.35597079    -0.20880
C309        C  0.51189666  0.01222981  0.34559781    -0.07400
C310        C  0.54368134  0.98724660  0.36604643     0.13470
C311        C  0.59007787  0.97456402  0.35643010    -0.24230
H312        H  0.55514839  0.95309545  0.41184739     0.14750
H313        H  0.44340437  0.03982129  0.34041421     0.14780
C314        C  0.40814220  0.01724250  0.39593898    -0.24180
H315        H  0.60758561  0.95144089  0.37519964     0.04990
H316        H  0.62292214  0.01310688  0.34750535     0.08220
H317        H  0.57588783  0.94916878  0.33927941     0.08220
H318        H  0.42233500  0.04318261  0.41283500     0.08200
H319        H  0.37608715  0.97841187  0.40536902     0.08200
H320        H  0.38970848  0.03942285  0.37718307     0.04980
C321        C  0.46113642  0.95055626  0.13983547    -0.20830
C322        C  0.49735233  0.98251596  0.15828541    -0.07390
C323        C  0.54194890  0.02777633  0.14545035     0.13480
C324        C  0.54813531  0.04022776  0.11464617    -0.20880
C325        C  0.51125248  0.00896644  0.09614741    -0.07400
C326        C  0.46769298  0.96264847  0.10907356     0.13470
C327        C  0.42933360  0.92401196  0.09109304    -0.24230
H328        H  0.42772017  0.91515268  0.14965719     0.14750
H329        H  0.58150185  0.07568175  0.10482456     0.14780
C330        C  0.58189680  0.06505244  0.16352806    -0.24180
H331        H  0.39946555  0.88882961  0.10523419     0.04990
H332        H  0.45248979  0.90712899  0.07945634     0.08220
H333        H  0.40620534  0.94539136  0.07494046     0.08220
H334        H  0.60343376  0.04195025  0.17983454     0.08200
H335        H  0.56034859  0.08390692  0.17487884     0.08200
H336        H  0.61308382  0.09896605  0.14948775     0.04980
C337        C  0.78348743  0.50184494  0.27485942    -0.20830
C338        C  0.79697484  0.49284388  0.24830820    -0.07390
C339        C  0.76043437  0.49154281  0.22390403     0.13480
C340        C  0.71100337  0.49823784  0.22694009    -0.20880
C341        C  0.69723829  0.50686041  0.25357279    -0.07400
C342        C  0.73404700  0.50853128  0.27793246     0.13470
C343        C  0.72094960  0.51520068  0.30757110    -0.24230
H344        H  0.81151217  0.50270356  0.29353271     0.14750
H345        H  0.68311914  0.49748647  0.20818464     0.14780
C346        C  0.77404171  0.48534560  0.19426149    -0.24180
H347        H  0.75291503  0.51180264  0.32449307     0.04990
H348        H  0.68244952  0.48278636  0.31570443     0.08220
H349        H  0.71750827  0.55619242  0.30558551     0.08220
H350        H  0.77785527  0.44454614  0.19612668     0.08200
H351        H  0.81253728  0.51801143  0.18635449     0.08200
H352        H  0.74223883  0.48878974  0.17724677     0.04980
C353        C  0.19958163  0.45256367  0.25609047    -0.20830
C354        C  0.19662135  0.50550021  0.25091794    -0.07390
C355        C  0.24427997  0.55144014  0.24392403     0.13480
C356        C  0.29361617  0.54317517  0.24285222    -0.20880
C357        C  0.29655536  0.49029876  0.24811595    -0.07400
C358        C  0.24896132  0.44435712  0.25494978     0.13470
C359        C  0.25029622  0.38671356  0.26225964    -0.24230
H360        H  0.16314709  0.41740955  0.26158581     0.14750
H361        H  0.33013974  0.57825219  0.23751726     0.14780
C362        C  0.24327773  0.60921689  0.23646939    -0.24180
H363        H  0.20995910  0.35602584  0.26872667     0.04990
H364        H  0.27887332  0.38254401  0.28106057     0.08220
H365        H  0.26313554  0.37688185  0.24268518     0.08220
H366        H  0.23149103  0.61972526  0.25611549     0.08200
H367        H  0.21418970  0.61322849  0.21792112     0.08200
H368        H  0.28351965  0.63961901  0.22954067     0.04980
C369        C  0.78508546  0.50149332  0.02523430    -0.20830
C370        C  0.79866306  0.49255599  0.99861399    -0.07390
C371        C  0.76087716  0.48952301  0.47466272     0.13480
C372        C  0.71078555  0.49465978  0.47821324    -0.20880
C373        C  0.69700855  0.50319839  0.00490648    -0.07400
C374        C  0.73497405  0.50661637  0.02879599     0.13470
C375        C  0.72276069  0.51386615  0.05847574    -0.24230
H376        H  0.81370632  0.50365013  0.04367465     0.14750
H377        H  0.68228416  0.49265125  0.45972458     0.14780
C378        C  0.77335327  0.48272371  0.44492225    -0.24180
H379        H  0.75572378  0.51208766  0.07498380     0.04990
H380        H  0.68517212  0.48075116  0.06732016     0.08220
H381        H  0.71816917  0.55442905  0.05624411     0.08220
H382        H  0.77764291  0.44208318  0.44694769     0.08200
H383        H  0.81119654  0.51572186  0.43632613     0.08200
H384        H  0.74066284  0.48507128  0.42831626     0.04980
C385        C  0.27375688  0.47828114  0.02724010    -0.20830
C386        C  0.29960471  0.49421956  0.99988955    -0.07390
C387        C  0.27450660  0.51598413  0.47425930     0.13480
C388        C  0.22371542  0.52047742  0.47655351    -0.20880
C389        C  0.19794612  0.50453901  0.00389474    -0.07400
C390        C  0.22299387  0.48285226  0.02952157     0.13470
C391        C  0.19551015  0.46301158  0.05904880    -0.24230
H392        H  0.29301777  0.46133329  0.04680064     0.14750
H393        H  0.20437198  0.53738580  0.45701301     0.14780
C394        C  0.30205390  0.53641281  0.44473850    -0.24180
H395        H  0.21982161  0.44534911  0.07652439     0.04990
H396        H  0.15570955  0.43076713  0.05722662     0.08220
H397        H  0.18948538  0.49763538  0.06614544     0.08220
H398        H  0.30811382  0.50212811  0.43728685     0.08200
H399        H  0.34181076  0.56861368  0.44674260     0.08200
H400        H  0.27777474  0.55440002  0.42738862     0.04980
C401        C  0.04645655  0.50501605  0.36297221    -0.20830
C402        C  0.00409587  0.51202507  0.34353928    -0.07390
C403        C  0.95407245  0.50443446  0.35595558     0.13480
C404        C  0.94837544  0.49038803  0.38690209    -0.20880
C405        C  0.99078716  0.48354015  0.40627359    -0.07400
C406        C  0.04076586  0.49107068  0.39390789     0.13470
C407        C  0.08846256  0.48372766  0.41274800    -0.24230
H408        H  0.08478643  0.51042500  0.35392304     0.14750
H409        H  0.91012002  0.48497178  0.39605956     0.14780
C410        C  0.90612451  0.51124319  0.33721487    -0.24180
H411        H  0.12296726  0.48875396  0.39910474     0.04990
H412        H  0.07683340  0.44192000  0.42686764     0.08220
H413        H  0.10306585  0.51502800  0.42675184     0.08220
H414        H  0.89256221  0.48060586  0.32279385     0.08200
H415        H  0.91695271  0.55340564  0.32355953     0.08200
H416        H  0.87117575  0.50476848  0.35089661     0.04980
C417        C  0.96736910  0.52455921  0.10700135    -0.20830
C418        C  0.00700389  0.51029923  0.09595131    -0.07390
C419        C  0.03631190  0.48157096  0.11589865     0.13480
C420        C  0.02555055  0.46851677  0.14632104    -0.20880
C421        C  0.98607746  0.48300750  0.15743209    -0.07400
C422        C  0.95661379  0.51157800  0.13741573     0.13470
C423        C  0.91505969  0.53023278  0.14785631    -0.24230
H424        H  0.94525352  0.54694152  0.09172680     0.14750
H425        H  0.04763963  0.44603611  0.16153695     0.14780
C426        C  0.07767693  0.46289423  0.10528585    -0.24180
H427        H  0.89914188  0.55546374  0.12938626     0.04990
H428        H  0.93341093  0.55550683  0.16474307     0.08220
H429        H  0.88020938  0.49426528  0.15741717     0.08220
H430        H  0.11240847  0.49885567  0.09561078     0.08200
H431        H  0.05911839  0.43766708  0.08840110     0.08200
H432        H  0.09371948  0.43764790  0.12368298     0.04980
C433        C  0.95334699  0.76152607  0.23645300    -0.20830
C434        C  0.99514779  0.80243046  0.24776999    -0.07390
C435        C  0.04090350  0.78959960  0.26114542     0.13480
C436        C  0.04362643  0.73750017  0.26218965    -0.20880
C437        C  0.00206727  0.69674729  0.25067158    -0.07400
C438        C  0.95578289  0.70913650  0.23782175     0.13470
C439        C  0.90822224  0.66799943  0.22555634    -0.24230
H440        H  0.91803352  0.77046103  0.22629107     0.14750
H441        H  0.07906406  0.72870822  0.27225505     0.14780
C442        C  0.08721000  0.82961809  0.27484175    -0.24180
H443        H  0.87567667  0.68500696  0.21690303     0.04990
H444        H  0.89047990  0.63153565  0.24328737     0.08220
H445        H  0.92114934  0.65569877  0.20687293     0.08220
H446        H  0.07220365  0.84233155  0.29266433     0.08200
H447        H  0.10731608  0.86581886  0.25760189     0.08200
H448        H  0.11842908  0.81162716  0.28491830     0.04980
C449        C  0.98119132  0.21897132  0.22890706    -0.20830
C450        C  0.01291462  0.20152982  0.25226654    -0.07390
C451        C  0.03456908  0.23389233  0.27388941     0.13480
C452        C  0.02403063  0.28281145  0.27143729    -0.20880
C453        C  0.99212966  0.30033056  0.24811390    -0.07400
C454        C  0.97072137  0.26796126  0.22637249     0.13470
C455        C  0.93827392  0.28516699  0.19989495    -0.24230
H456        H  0.96485663  0.19422818  0.21229795     0.14750
H457        H  0.04032871  0.30725731  0.28817515     0.15020
C458        C  0.06707217  0.21632721  0.30023851    -0.24180
H459        H  0.92827165  0.25667894  0.18429567     0.04990
H460        H  0.96173224  0.32664478  0.18757120     0.08220
H461        H  0.89950004  0.28522540  0.20717164     0.08220
H462        H  0.10551502  0.21575900  0.29280326     0.08200
H463        H  0.04343703  0.17491500  0.31255961     0.08200
H464        H  0.07758708  0.24483791  0.31584411     0.04980
C465        C  0.75970610  0.95416556  0.24593543    -0.20830
C466        C  0.80654593  0.99934475  0.24761769    -0.07390
C467        C  0.80161267  0.04886901  0.25130165     0.13480
C468        C  0.75006303  0.05117012  0.25386309    -0.20880
C469        C  0.70308054  0.00572086  0.25256324    -0.07400
C470        C  0.70816477  0.95650288  0.24831045     0.13470
C471        C  0.66008230  0.90546184  0.24719297    -0.24230
H472        H  0.76349423  0.91621586  0.24322977     0.14750
H473        H  0.74646074  0.08921518  0.25652299     0.14780
C474        C  0.84999207  0.10012880  0.25152916    -0.24180
H475        H  0.67221857  0.87012445  0.24580573     0.04990
H476        H  0.63442633  0.91242075  0.22739150     0.08220
H477        H  0.63649585  0.89403563  0.26761095     0.08220
H478        H  0.87346895  0.11054729  0.23105715     0.08200
H479        H  0.87595211  0.09411760  0.27132293     0.08200
H480        H  0.83800249  0.13582584  0.25234659     0.04980
C481        C  0.20798757  0.96894599  0.23833345    -0.20830
C482        C  0.20450795  0.01096198  0.25093286    -0.07390
C483        C  0.25270438  0.04776167  0.26098467     0.13480
C484        C  0.30215481  0.04077281  0.25851931    -0.20880
C485        C  0.30543203  0.99797166  0.24654166    -0.07400
C486        C  0.25728540  0.96134059  0.23634598     0.13470
C487        C  0.25648538  0.91315700  0.22397323    -0.24230
H488        H  0.17166963  0.94132265  0.23006177     0.14750
H489        H  0.33874087  0.06923990  0.26611865     0.14780
C490        C  0.25333244  0.09530075  0.27387759    -0.24180
H491        H  0.21479589  0.88768423  0.21867999     0.04990
H492        H  0.27407301  0.88633345  0.24048288     0.08220
H493        H  0.27949114  0.92777623  0.20309965     0.08220
H494        H  0.23075372  0.08004207  0.29490595     0.08200
H495        H  0.23539345  0.12228838  0.25772473     0.08200
H496        H  0.29493641  0.12062891  0.27919992     0.04980
C497        C  0.94813649  0.75300780  0.50128510    -0.20830
C498        C  0.99423788  0.80030601  0.49980396    -0.07390
C499        C  0.04599355  0.79499773  0.00080579     0.13480
C500        C  0.04976725  0.74301179  0.00305912    -0.20880
C501        C  0.00366851  0.69583299  0.00428184    -0.07400
C502        C  0.95190379  0.70102925  0.50351580     0.13470
C503        C  0.90015390  0.65241476  0.50568572    -0.24230
H504        H  0.90846716  0.75655768  0.50086283     0.14750
H505        H  0.08940706  0.73939813  0.00345735     0.14780
C506        C  0.09772517  0.84351774  0.99869942    -0.24180
H507        H  0.86410059  0.66423390  0.50662887     0.04990
H508        H  0.90097043  0.62159167  0.02615551     0.08220
H509        H  0.89475170  0.63379238  0.48591850     0.08220
H510        H  0.10261717  0.86268954  0.01822510     0.08200
H511        H  0.09715669  0.87378540  0.47798734     0.08200
H512        H  0.13385733  0.83159253  0.99821872     0.04980
C513        C  0.03545253  0.23198667  0.01929894    -0.20830
C514        C  0.00207742  0.19641638  0.00151141    -0.07390
C515        C  0.96273888  0.21298396  0.48268368     0.13480
C516        C  0.95813838  0.26401535  0.48236347    -0.20880
C517        C  0.99176945  0.29968998  0.49996356    -0.07400
C518        C  0.03120172  0.28328852  0.01872993     0.13470
C519        C  0.06851107  0.31862259  0.03871258    -0.24230
H520        H  0.06531511  0.21958052  0.03393064     0.14750
H521        H  0.92830425  0.27652397  0.46774952     0.14780
C522        C  0.92618117  0.17846740  0.46212958    -0.24180
H523        H  0.09423119  0.29751787  0.05300642     0.04990
H524        H  0.04456465  0.32899583  0.05348888     0.08220
H525        H  0.09608528  0.35665508  0.02522297     0.08220
H526        H  0.89885842  0.13975970  0.47512919     0.08200
H527        H  0.95074218  0.16944682  0.44708883     0.08200
H528        H  0.90021756  0.19957719  0.44808301     0.04980
C529        C  0.69942492  0.95569767  0.99514265    -0.20830
C530        C  0.69771485  0.00373300  0.00216373    -0.07390
C531        C  0.74690858  0.04526322  0.00696543     0.13480
C532        C  0.79597851  0.03720205  0.00491577    -0.20880
C533        C  0.79781703  0.98922867  0.49781768    -0.07400
C534        C  0.74851684  0.94770234  0.49295039     0.13470
C535        C  0.74657303  0.89407747  0.48626228    -0.24230
H536        H  0.66186323  0.92371802  0.49161645     0.14750
H537        H  0.83335918  0.06902981  0.00874884     0.14780
C538        C  0.74863473  0.09901845  0.01337611    -0.24180
H539        H  0.70447402  0.86550607  0.48502176     0.04990
H540        H  0.76822221  0.87352805  0.00400841     0.08220
H541        H  0.76511435  0.90136481  0.46450271     0.08220
H542        H  0.73031043  0.09205289  0.03515729     0.08200
H543        H  0.72661450  0.11908593  0.49561236     0.08200
H544        H  0.79067216  0.12784301  0.01436305     0.04980
C545        C  0.26647779  0.99106578  0.47435733    -0.20830
C546        C  0.30032727  0.99369724  0.99967213    -0.07390
C547        C  0.28274649  0.00312387  0.02538665     0.13480
C548        C  0.23231979  0.00978208  0.02492855    -0.20880
C549        C  0.19853023  0.00698214  0.99968312    -0.07400
C550        C  0.21603312  0.99781774  0.47392350     0.13470
C551        C  0.18304655  0.99733158  0.44549129    -0.24230
H552        H  0.27992783  0.98443731  0.45455487     0.14750
H553        H  0.21873889  0.01642956  0.04469178     0.14780
C554        C  0.31557971  0.00428341  0.05384556    -0.24180
H555        H  0.20473516  0.99340985  0.42714420     0.04990
H556        H  0.17415936  0.03613696  0.43860013     0.08220
H557        H  0.14469860  0.96213034  0.44850166     0.08220
H558        H  0.35392867  0.03959117  0.05067496     0.08200
H559        H  0.32409634  0.96536904  0.06110124     0.08200
H560        H  0.29384798  0.00871877  0.07201482     0.04980
C561        C  0.96842140  0.02233108  0.35468948    -0.20830
C562        C  0.01350711  0.01592289  0.34420737    -0.07390
C563        C  0.04688294  0.99309855  0.36466451     0.13480
C564        C  0.03437561  0.97779053  0.39488359    -0.20880
C565        C  0.98931191  0.98422626  0.40538502    -0.07400
C566        C  0.95594356  0.00707338  0.38492368     0.13470
C567        C  0.90824293  0.01739806  0.39468975    -0.24230
H568        H  0.94309263  0.04021030  0.33910199     0.14750
H569        H  0.05975653  0.95996051  0.41045213     0.14780
C570        C  0.09469634  0.98293413  0.35491448    -0.24180
H571        H  0.88923662  0.03892215  0.37591855     0.04990
H572        H  0.92148520  0.04339159  0.41159089     0.08220
H573        H  0.87685072  0.97797419  0.40401938     0.08220
H574        H  0.12606347  0.02241266  0.34563750     0.08200
H575        H  0.08157707  0.95701914  0.33797424     0.08200
H576        H  0.11371330  0.96142067  0.37368948     0.04980
C577        C  0.97128166  0.02340881  0.13710920    -0.20830
C578        C  0.99395447  0.98637984  0.15483685    -0.07390
C579        C  0.02417341  0.96335224  0.14149976     0.13480
C580        C  0.03151348  0.97851045  0.11070241    -0.20880
C581        C  0.00878405  0.01550401  0.09294337    -0.07400
C582        C  0.97867737  0.03864622  0.10631929     0.13470
C583        C  0.95611887  0.08099114  0.08840885    -0.24230
H584        H  0.94832798  0.04105206  0.14750117     0.14750
H585        H  0.05448793  0.96084955  0.10033954     0.14780
C586        C  0.04701061  0.92132069  0.15951614    -0.24180
H587        H  0.93625197  0.09682587  0.10267146     0.04990
H588        H  0.92549633  0.06282544  0.07213289     0.08220
H589        H  0.98922082  0.11623728  0.07649547     0.08220
H590        H  0.01399580  0.88590005  0.17137753     0.08200
H591        H  0.07730802  0.93969466  0.17587344     0.08200
H592        H  0.06729079  0.90573232  0.14533899     0.04980
O593        O  0.85697340  0.95246295  0.98068977    -0.81410
O594        O  0.10513616  0.98533089  0.98830533    -0.66100
O595        O  0.95890448  0.95428809  0.50693892    -1.12700
C596        C  0.01043122  0.14334405  0.50300311     1.05480
O597        O  0.14215306  0.04727408  0.51612677    -0.79310
O598        O  0.06640443  0.04694154  0.55188237    -0.66890
Ni599      Ni  0.90310726  0.90886540  0.98484220     1.34870
C600        C  0.01820711  0.03043028  0.56070640     0.84210
O601        O  0.02436932  0.89368476  0.00421510    -0.79850
O602        O  0.94058200  0.85752191  0.98726529    -0.90120
C603        C  0.14567234  0.01401491  0.50109976     0.83790
O604        O  0.93092009  0.94714368  0.94661655    -0.68320
O605        O  0.05525433  0.13850056  0.51350502    -0.87610
C606        C  0.97915416  0.96723033  0.93772270     0.84620
C607        C  0.98619677  0.85385636  0.99688858     1.06180
H608        H  0.04376752  0.06140072  0.97086593     0.37990
O609        O  0.03845706  0.04410864  0.99157495    -1.10270
O610        O  0.97774069  0.02685750  0.54307930    -0.66920
Ni611      Ni  0.96512375  0.02936931  0.50103031     1.26350
O612        O  0.01965212  0.97237987  0.95539099    -0.67150
O613        O  0.97283756  0.10458018  0.49431838    -0.79440
C614        C  0.85161239  0.98385482  0.99628727     0.84000
O615        O  0.89145714  0.01229159  0.50980253    -0.66620
Ni616      Ni  0.09408917  0.08870885  0.51406735     1.27450
Ni617      Ni  0.03203105  0.96891376  0.99741474     1.26060
H618        H  0.95383382  0.93728633  0.52769501     0.38540
O619        O  0.86329589  0.96080749  0.73003567    -0.81410
O620        O  0.11112032  0.98923509  0.73792862    -0.66100
O621        O  0.96445664  0.95848845  0.75628164    -1.12700
C622        C  0.02094223  0.14864138  0.75388603     1.05480
O623        O  0.14359304  0.04313262  0.77010710    -0.79310
O624        O  0.07229471  0.05424252  0.80325369    -0.66890
Ni625      Ni  0.90751770  0.91492155  0.73406020     1.34870
C626        C  0.02395177  0.03321041  0.81191868     0.84210
O627        O  0.02840092  0.89666455  0.75184633    -0.79850
O628        O  0.94298776  0.86165804  0.73671984    -0.90120
C629        C  0.15034306  0.01535300  0.75275524     0.83790
O630        O  0.93611805  0.95234385  0.69578431    -0.68320
O631        O  0.06693004  0.14459254  0.76209488    -0.87610
C632        C  0.98449735  0.97139778  0.68703682     0.84620
C633        C  0.98869134  0.85694583  0.74540899     1.06180
H634        H  0.05034544  0.06566243  0.72185715     0.37990
O635        O  0.04496774  0.04753448  0.74244712    -1.10270
O636        O  0.98365019  0.02728861  0.79411014    -0.66920
Ni637      Ni  0.97215150  0.03382574  0.75189542     1.26350
O638        O  0.02517580  0.97772434  0.70459484    -0.67150
O639        O  0.98130989  0.10940436  0.74690298    -0.79440
C640        C  0.85939302  0.99257895  0.74594810     0.84000
O641        O  0.89910555  0.01790591  0.76058279    -0.66620
Ni642      Ni  0.10144200  0.09069314  0.76510285     1.27450
Ni643      Ni  0.03746634  0.97230356  0.74673167     1.26060
H644        H  0.95931715  0.94045815  0.77689432     0.38540
O645        O  0.85785036  0.45607132  0.98072824    -0.81410
O646        O  0.10572519  0.48491347  0.99062137    -0.66100
O647        O  0.95860901  0.45390714  0.50831950    -1.12700
C648        C  0.01157714  0.64251564  0.50631376     1.05480
O649        O  0.14111603  0.54364052  0.52054857    -0.79310
O650        O  0.06557490  0.54570636  0.55508005    -0.66890
Ni651      Ni  0.90238648  0.41013006  0.98573765     1.34870
C652        C  0.01717420  0.52702263  0.56368425     0.84210
O653        O  0.02357132  0.39307485  0.00429540    -0.79850
O654        O  0.93814406  0.35701403  0.98924162    -0.90120
C655        C  0.14523187  0.51143164  0.50503342     0.83790
O656        O  0.93199962  0.44660839  0.94748542    -0.68320
O657        O  0.05667259  0.63779076  0.51637418    -0.87610
C658        C  0.98058186  0.46723543  0.93886974     0.84620
C659        C  0.98413213  0.35315985  0.99794186     1.06180
H660        H  0.04470181  0.56160787  0.97393778     0.37990
O661        O  0.03895227  0.54342072  0.99450247    -1.10270
O662        O  0.97695910  0.52382242  0.54585932    -0.66920
Ni663      Ni  0.96543035  0.52883558  0.50355690     1.26350
O664        O  0.02046467  0.47429955  0.95693794    -0.67150
O665        O  0.97373238  0.60394014  0.49769502    -0.79440
C666        C  0.85225436  0.48649826  0.49696393     0.84000
O667        O  0.89153123  0.51206031  0.51193504    -0.66620
Ni668      Ni  0.09447090  0.58687675  0.51754161     1.27450
Ni669      Ni  0.03198542  0.46834073  0.99908810     1.26060
H670        H  0.95317985  0.43603663  0.52894422     0.38540
O671        O  0.85131464  0.44769296  0.73467313    -0.81410
O672        O  0.10224334  0.47951746  0.74188578    -0.66100
O673        O  0.95556657  0.45340549  0.75832249    -1.12700
C674        C  0.00924698  0.64270159  0.75264160     1.05480
O675        O  0.14071772  0.54757544  0.76596203    -0.79310
O676        O  0.06270594  0.54245301  0.80224888    -0.66890
Ni677      Ni  0.90041418  0.40796127  0.73591017     1.34870
C678        C  0.01455139  0.52840940  0.81089278     0.84210
O679        O  0.01920363  0.38973797  0.75795271    -0.79850
O680        O  0.93981356  0.35923266  0.73524314    -0.90120
C681        C  0.14343334  0.51144118  0.75282784     0.83790
O682        O  0.92835097  0.45177291  0.69870253    -0.68320
O683        O  0.05150624  0.63532823  0.76564650    -0.87610
C684        C  0.97633158  0.46685460  0.68980300     0.84620
C685        C  0.98311651  0.35278230  0.74704408     1.06180
H686        H  0.04344707  0.55795391  0.72144646     0.37990
O687        O  0.03694718  0.54167278  0.74220402    -1.10270
O688        O  0.97557949  0.52890613  0.79256961    -0.66920
Ni689      Ni  0.96387431  0.52953709  0.75050960     1.26350
O690        O  0.01629060  0.46669487  0.70755517    -0.67150
O691        O  0.97365871  0.60551611  0.74173526    -0.79440
C692        C  0.84942807  0.48525240  0.74689735     0.84000
O693        O  0.89063180  0.51615981  0.75827170    -0.66620
Ni694      Ni  0.09126004  0.58678381  0.76506382     1.27450
Ni695      Ni  0.02873858  0.46563303  0.74971498     1.26060
H696        H  0.94943175  0.43746713  0.77913946     0.38540
O697        O  0.35822294  0.95680581  0.98132579    -0.81410
O698        O  0.60485910  0.98378269  0.98881393    -0.66100
O699        O  0.45851236  0.95254485  0.50783882    -1.12700
C700        C  0.51537937  0.14347819  0.50580182     1.05480
O701        O  0.63809779  0.03757558  0.52109898    -0.79310
O702        O  0.56764296  0.04979474  0.55454115    -0.66890
Ni703      Ni  0.40055114  0.90870350  0.98641071     1.34870
C704        C  0.51961555  0.02654078  0.56371103     0.84210
O705        O  0.52238484  0.89114609  0.00208855    -0.79850
O706        O  0.43472310  0.85406931  0.99033075    -0.90120
C707        C  0.64418162  0.00934809  0.50377318     0.83790
O708        O  0.42905902  0.94308171  0.94780836    -0.68320
O709        O  0.56179519  0.13953499  0.51268583    -0.87610
C710        C  0.47722625  0.96516811  0.93873749     0.84620
C711        C  0.48146246  0.85078810  0.99737050     1.06180
H712        H  0.54313158  0.06008156  0.97360989     0.37990
O713        O  0.53856699  0.04177277  0.99419916    -1.10270
O714        O  0.47867155  0.01932290  0.54642780    -0.66920
Ni715      Ni  0.46588439  0.02756164  0.50436085     1.26350
O716        O  0.51824498  0.97343684  0.95602208    -0.67150
O717        O  0.47483160  0.10317641  0.50051748    -0.79440
C718        C  0.35311479  0.98602789  0.49849218     0.84000
O719        O  0.39265853  0.01052904  0.51359870    -0.66620
Ni720      Ni  0.59598647  0.08531631  0.51609214     1.27450
Ni721      Ni  0.53131812  0.96666344  0.99792800     1.26060
H722        H  0.45400699  0.93407344  0.52834488     0.38540
O723        O  0.36674975  0.96418411  0.72892260    -0.81410
O724        O  0.60880720  0.98266023  0.74313923    -0.66100
O725        O  0.46292086  0.95744303  0.75904404    -1.12700
C726        C  0.51974075  0.14694355  0.75614704     1.05480
O727        O  0.64783901  0.04696488  0.76937639    -0.79310
O728        O  0.57152167  0.04715215  0.80491241    -0.66890
Ni729      Ni  0.40640417  0.91397730  0.73656372     1.34870
C730        C  0.52305724  0.03005411  0.81343773     0.84210
O731        O  0.52475741  0.89238557  0.75710475    -0.79850
O732        O  0.43861879  0.85781003  0.74226407    -0.90120
C733        C  0.65004331  0.01185262  0.75523757     0.83790
O734        O  0.43776580  0.94649554  0.69857736    -0.68320
O735        O  0.56363931  0.14059662  0.76710690    -0.87610
C736        C  0.48654023  0.96728224  0.69050613     0.84620
C737        C  0.48400723  0.85284348  0.75125216     1.06180
H738        H  0.55098268  0.06268019  0.72446406     0.37990
O739        O  0.54484751  0.04531075  0.74505671    -1.10270
O740        O  0.48321051  0.02892734  0.79554950    -0.66920
Ni741      Ni  0.47161274  0.03310829  0.75344944     1.26350
O742        O  0.52602579  0.97429785  0.70876034    -0.67150
O743        O  0.48140153  0.10908931  0.74708451    -0.79440
C744        C  0.35930318  0.99233548  0.74583981     0.84000
O745        O  0.39784959  0.01769413  0.76130036    -0.66620
Ni746      Ni  0.60078561  0.08935942  0.76756663     1.27450
Ni747      Ni  0.53577212  0.96900942  0.75087068     1.26060
H748        H  0.45661477  0.94020133  0.77970535     0.38540
O749        O  0.35800423  0.45903559  0.98116506    -0.81410
O750        O  0.60426695  0.48383241  0.99092494    -0.66100
O751        O  0.45701908  0.45269929  0.50847220    -1.12700
C752        C  0.51514128  0.64460365  0.50521284     1.05480
O753        O  0.63603630  0.53665191  0.52376809    -0.79310
O754        O  0.56663163  0.55725164  0.55534991    -0.66890
Ni755      Ni  0.40025569  0.41098986  0.98560299     1.34870
C756        C  0.51895183  0.53131209  0.56469017     0.84210
O757        O  0.52068916  0.39114752  0.00330349    -0.79850
O758        O  0.43472473  0.35677654  0.98853414    -0.90120
C759        C  0.64297195  0.50838035  0.50661808     0.83790
O760        O  0.43014056  0.44799740  0.94760777    -0.68320
O761        O  0.56270682  0.64255654  0.51019934    -0.87610
C762        C  0.47872301  0.46753519  0.93916926     0.84620
C763        C  0.48050431  0.35178936  0.99663197     1.06180
H764        H  0.54118028  0.55978124  0.97482714     0.37990
O765        O  0.53723304  0.54185006  0.99548712    -1.10270
O766        O  0.47788147  0.51795872  0.54781096    -0.66920
Ni767      Ni  0.46451622  0.52745901  0.50584848     1.26350
O768        O  0.51889383  0.47389319  0.95702966    -0.67150
O769        O  0.47361069  0.60295072  0.50296436    -0.79440
C770        C  0.35233285  0.48714853  0.99877885     0.84000
O771        O  0.39086338  0.50987699  0.51509057    -0.66620
Ni772      Ni  0.59550394  0.58665823  0.51640106     1.27450
Ni773      Ni  0.53015409  0.46679390  0.99918219     1.26060
H774        H  0.45148237  0.43332487  0.52885704     0.38540
O775        O  0.35451934  0.45137622  0.73219722    -0.81410
O776        O  0.60427208  0.48514462  0.74141070    -0.66100
O777        O  0.45702994  0.45425840  0.75849816    -1.12700
C778        C  0.50872856  0.64327585  0.75550020     1.05480
O779        O  0.63995318  0.54681671  0.76963929    -0.79310
O780        O  0.56244269  0.54511903  0.80452826    -0.66890
Ni781      Ni  0.40114589  0.40805840  0.73668866     1.34870
C782        C  0.51389440  0.52901143  0.81275123     0.84210
O783        O  0.52292860  0.39284436  0.75560363    -0.79850
O784        O  0.43827141  0.35639621  0.73969246    -0.90120
C785        C  0.64410872  0.51330260  0.75501617     0.83790
O786        O  0.42981884  0.44503477  0.69839433    -0.68320
O787        O  0.55269200  0.63770863  0.76700025    -0.87610
C788        C  0.47841242  0.46604911  0.68990166     0.84620
C789        C  0.48394172  0.35272959  0.74890423     1.06180
H790        H  0.54367295  0.56170564  0.72352917     0.37990
O791        O  0.53730192  0.54394996  0.74412138    -1.10270
O792        O  0.47437738  0.52664787  0.79453603    -0.66920
Ni793      Ni  0.46365203  0.52981783  0.75237368     1.26350
O794        O  0.51898802  0.47349355  0.70752692    -0.67150
O795        O  0.47196925  0.60540541  0.74556420    -0.79440
C796        C  0.34988034  0.48443305  0.74695725     0.84000
O797        O  0.38971010  0.51384871  0.75999999    -0.66620
Ni798      Ni  0.59175302  0.58808776  0.76737483     1.27450
Ni799      Ni  0.53059749  0.46853138  0.74961744     1.26060
H800        H  0.45168479  0.43751198  0.77927162     0.38540
C801        C  0.45666898  0.50996135  0.88853481    -0.20830
C802        C  0.48886122  0.48343479  0.90697357    -0.07390
C803        C  0.52866413  0.47118346  0.89423448     0.13480
C804        C  0.53534979  0.48617099  0.86343467    -0.20880
C805        C  0.50324005  0.51280609  0.84494885    -0.07400
C806        C  0.46350932  0.52519543  0.85772990     0.13470
C807        C  0.42952917  0.55622743  0.83935466    -0.24230
H808        H  0.42637443  0.51947093  0.89838763     0.14750
H809        H  0.56567583  0.47660091  0.85365256     0.14780
C810        C  0.56299943  0.44068492  0.91272743    -0.24180
H811        H  0.40335864  0.56545268  0.85336431     0.04990
H812        H  0.40266115  0.53151311  0.82397326     0.08220
H813        H  0.45603688  0.59580703  0.82654304     0.08220
H814        H  0.53674583  0.40111711  0.92567548     0.08200
H815        H  0.58967691  0.46574519  0.92801459     0.08200
H816        H  0.58936960  0.43155599  0.89879818     0.04980
C817        C  0.51305198  0.53778558  0.64527859    -0.20830
C818        C  0.48863775  0.48214744  0.65790265    -0.07390
C819        C  0.47536932  0.44265113  0.63998426     0.13480
C820        C  0.48597675  0.45988436  0.60956330    -0.20880
C821        C  0.51024890  0.51553278  0.59687450    -0.07400
C822        C  0.52366381  0.55505808  0.61482666     0.13470
C823        C  0.54717456  0.61542877  0.60171562    -0.24230
H824        H  0.52306425  0.56779749  0.65924058     0.14750
H825        H  0.47575943  0.42981383  0.59562475     0.14780
C826        C  0.45146789  0.38232354  0.65310643    -0.24180
H827        H  0.55327625  0.64068798  0.61872114     0.04990
H828        H  0.51940728  0.62749157  0.58425305     0.08220
H829        H  0.58693917  0.62474498  0.59187630     0.08220
H830        H  0.41185655  0.37338198  0.66303171     0.08200
H831        H  0.47916695  0.37004178  0.67053530     0.08200
H832        H  0.44501142  0.35699610  0.63610320     0.04980
C833        C  0.46709963  0.77012449  0.73073827    -0.20830
C834        C  0.48959304  0.79860511  0.75358066    -0.07390
C835        C  0.51604486  0.77455761  0.77774630     0.13480
C836        C  0.52176865  0.72407465  0.77757898    -0.20880
C837        C  0.50013288  0.69595082  0.75441986    -0.07400
C838        C  0.47159856  0.71907963  0.73087212     0.13470
C839        C  0.44715569  0.69143539  0.70527288    -0.24230
H840        H  0.44636320  0.78839814  0.71236639     0.14750
H841        H  0.54235154  0.70582700  0.79603252     0.14780
C842        C  0.53538490  0.80004929  0.80454390    -0.24180
H843        H  0.42923678  0.71708703  0.68815475     0.04990
H844        H  0.41430482  0.65226326  0.71321326     0.08220
H845        H  0.47870018  0.68358346  0.69453459     0.08220
H846        H  0.50100639  0.80510652  0.81419341     0.08200
H847        H  0.56722994  0.84054305  0.79849065     0.08200
H848        H  0.55253109  0.77416026  0.82196903     0.04980
C849        C  0.46107492  0.19963313  0.76102737    -0.20830
C850        C  0.51212959  0.20020688  0.75460752    -0.07390
C851        C  0.55399797  0.25124838  0.74651251     0.13480
C852        C  0.54357195  0.30006070  0.74507351    -0.20880
C853        C  0.49237756  0.29951354  0.75133355    -0.07400
C854        C  0.45066868  0.24837070  0.75968212     0.13470
C855        C  0.39555596  0.24443310  0.76822500    -0.24230
H856        H  0.42912386  0.16058736  0.76747157     0.14750
H857        H  0.57550223  0.33906699  0.73851922     0.14780
C858        C  0.60917655  0.25486023  0.73826412    -0.24180
H859        H  0.37000605  0.20138723  0.77666712     0.04990
H860        H  0.37427378  0.26102179  0.74868699     0.08220
H861        H  0.39951839  0.26743909  0.78607529     0.08220
H862        H  0.60541106  0.23291391  0.71995865     0.08200
H863        H  0.62936101  0.23661362  0.75774543     0.08200
H864        H  0.63565393  0.29800050  0.73068637     0.04980
C865        C  0.46361524  0.69895518  0.51729183    -0.20830
C866        C  0.50731776  0.69792244  0.50264977    -0.07390
C867        C  0.54224936  0.74747262  0.98612148     0.13480
C868        C  0.53279207  0.79664055  0.98495770    -0.20880
C869        C  0.48907089  0.79757260  0.99957834    -0.07400
C870        C  0.45419926  0.74814046  0.51611237     0.13470
C871        C  0.40838081  0.74729669  0.53350952    -0.24230
H872        H  0.43719713  0.66109379  0.53018308     0.14750
H873        H  0.55930787  0.83462003  0.97220582     0.14780
C874        C  0.58831233  0.74867037  0.96878284    -0.24180
H875        H  0.38721102  0.70566123  0.54650467     0.04990
H876        H  0.37823296  0.76021478  0.51827087     0.08220
H877        H  0.42422257  0.77540861  0.54926562     0.08220
H878        H  0.57281612  0.72030551  0.95314077     0.08200
H879        H  0.61879063  0.73645650  0.98406189     0.08200
H880        H  0.60910188  0.79030183  0.95565690     0.04980
C881        C  0.46062001  0.20474919  0.98969160    -0.20830
C882        C  0.50787080  0.19743754  0.50364117    -0.07390
C883        C  0.54576360  0.24141904  0.51525500     0.13480
C884        C  0.53516034  0.29043714  0.51252481    -0.20880
C885        C  0.48789515  0.29778962  0.99859790    -0.07400
C886        C  0.45004335  0.25383449  0.98693070     0.13470
C887        C  0.39854256  0.25765870  0.97112227    -0.24230
H888        H  0.43145489  0.17170288  0.98059728     0.14750
H889        H  0.56439787  0.32341280  0.52163379     0.14780
C890        C  0.59729520  0.23763437  0.53107388    -0.24180
H891        H  0.37514238  0.21994560  0.96274078     0.04990
H892        H  0.40809244  0.29239285  0.95172726     0.08220
H893        H  0.37209821  0.26310683  0.48656887     0.08220
H894        H  0.62391259  0.23255628  0.51558868     0.08200
H895        H  0.58779658  0.20269856  0.55036663     0.08200
H896        H  0.62052870  0.27522388  0.53960570     0.04980
C897        C  0.53088232  0.97227561  0.89617846    -0.20830
C898        C  0.48699072  0.98096566  0.90651629    -0.07390
C899        C  0.45480048  0.00527693  0.88611225     0.13480
C900        C  0.46767470  0.02047772  0.85597135    -0.20880
C901        C  0.51189939  0.01223123  0.84559797    -0.07400
C902        C  0.54368532  0.98724925  0.86604636     0.13470
C903        C  0.59008174  0.97456704  0.85642961    -0.24230
H904        H  0.55515466  0.95309987  0.91184733     0.14750
H905        H  0.44340628  0.03982135  0.84041494     0.14780
C906        C  0.40814640  0.01724378  0.89594013    -0.24180
H907        H  0.60759049  0.95144473  0.87519906     0.04990
H908        H  0.62292541  0.01311001  0.84750431     0.08220
H909        H  0.57589125  0.94917112  0.83927925     0.08220
H910        H  0.42233953  0.04318455  0.91283583     0.08200
H911        H  0.37609205  0.97841298  0.90537071     0.08200
H912        H  0.38971162  0.03942321  0.87718433     0.04980
C913        C  0.46113244  0.95055445  0.63983559    -0.20830
C914        C  0.49734921  0.98251439  0.65828515    -0.07390
C915        C  0.54194524  0.02777479  0.64544956     0.13480
C916        C  0.54813030  0.04022599  0.61464528    -0.20880
C917        C  0.51124671  0.00896433  0.59614692    -0.07400
C918        C  0.46768766  0.96264642  0.60907357     0.13470
C919        C  0.42932725  0.92400979  0.59109345    -0.24230
H920        H  0.42771653  0.91515089  0.64965767     0.14750
H921        H  0.58149653  0.07567994  0.60482331     0.14780
C922        C  0.58189410  0.06505107  0.66352685    -0.24180
H923        H  0.39945983  0.88882743  0.60523495     0.04990
H924        H  0.45248268  0.90712688  0.57945620     0.08220
H925        H  0.40619833  0.94538917  0.57494135     0.08220
H926        H  0.60343191  0.04194902  0.67983281     0.08200
H927        H  0.56034655  0.08390530  0.67487824     0.08200
H928        H  0.61308036  0.09896484  0.64948615     0.04980
C929        C  0.78348634  0.50184282  0.77486051    -0.20830
C930        C  0.79697539  0.49284370  0.74830915    -0.07390
C931        C  0.76043637  0.49154457  0.72390433     0.13480
C932        C  0.71100511  0.49823948  0.72693989    -0.20880
C933        C  0.69723841  0.50686015  0.75357269    -0.07400
C934        C  0.73404568  0.50852913  0.77793302     0.13470
C935        C  0.72094649  0.51519649  0.80757177    -0.24230
H936        H  0.81150994  0.50269988  0.79353430     0.14750
H937        H  0.68312203  0.49748960  0.70818396     0.14780
C938        C  0.77404554  0.48534966  0.69426164    -0.24180
H939        H  0.75291084  0.51179702  0.82449421     0.04990
H940        H  0.68244581  0.48278207  0.81570410     0.08220
H941        H  0.71750544  0.55618819  0.80558681     0.08220
H942        H  0.77785891  0.44455032  0.69612609     0.08200
H943        H  0.81254163  0.51801571  0.68635569     0.08200
H944        H  0.74224373  0.48879529  0.67724648     0.04980
C945        C  0.19958165  0.45256328  0.75608990    -0.20830
C946        C  0.19662151  0.50549985  0.75091741    -0.07390
C947        C  0.24428038  0.55143977  0.74392431     0.13480
C948        C  0.29361675  0.54317479  0.74285317    -0.20880
C949        C  0.29655584  0.49029836  0.74811681    -0.07400
C950        C  0.24896154  0.44435671  0.75494991     0.13470
C951        C  0.25029638  0.38671313  0.76225975    -0.24230
H952        H  0.16314687  0.41740921  0.76158469     0.14750
H953        H  0.33014051  0.57825180  0.73751874     0.14780
C954        C  0.24327822  0.60921654  0.73646982    -0.24180
H955        H  0.20995900  0.35602537  0.76872617     0.04990
H956        H  0.27887261  0.38254322  0.78106109     0.08220
H957        H  0.26313681  0.37688184  0.74268548     0.08220
H958        H  0.23149030  0.61972431  0.75611578     0.08200
H959        H  0.21419109  0.61322862  0.71792112     0.08200
H960        H  0.28352044  0.63961877  0.72954179     0.04980
C961        C  0.78507466  0.50148590  0.52523374    -0.20830
C962        C  0.79865169  0.49254765  0.49861353    -0.07390
C963        C  0.76088836  0.48953041  0.97466325     0.13480
C964        C  0.71079603  0.49466553  0.97821391    -0.20880
C965        C  0.69699859  0.50319342  0.50490574    -0.07400
C966        C  0.73496394  0.50661066  0.52879528     0.13470
C967        C  0.72275102  0.51386138  0.55847488    -0.24230
H968        H  0.81369540  0.50364214  0.54367415     0.14750
H969        H  0.68229454  0.49265643  0.95972529     0.14780
C970        C  0.77336503  0.48273186  0.94492271    -0.24180
H971        H  0.75571391  0.51208240  0.57498300     0.04990
H972        H  0.68516202  0.48074716  0.56731935     0.08220
H973        H  0.71816043  0.55442476  0.55624300     0.08220
H974        H  0.77765587  0.44209189  0.94694805     0.08200
H975        H  0.81120779  0.51573085  0.93632659     0.08200
H976        H  0.74067432  0.48507862  0.92831678     0.04980
C977        C  0.27374611  0.47827214  0.52723998    -0.20830
C978        C  0.29959349  0.49421077  0.49988928    -0.07390
C979        C  0.27451926  0.51599496  0.97425959     0.13480
C980        C  0.22372884  0.52049014  0.97655363    -0.20880
C981        C  0.19793327  0.50452632  0.50389478    -0.07400
C982        C  0.22298229  0.48284134  0.52952161     0.13470
C983        C  0.19549917  0.46300054  0.55904901    -0.24230
H984        H  0.29300801  0.46132563  0.54680052     0.14750
H985        H  0.20438636  0.53739980  0.95701312     0.14780
C986        C  0.30206740  0.53642370  0.94473904    -0.24180
H987        H  0.21981161  0.44533934  0.57652455     0.04990
H988        H  0.15569913  0.43075504  0.55722719     0.08220
H989        H  0.18947338  0.49762400  0.56614546     0.08220
H990        H  0.30812627  0.50213871  0.93728715     0.08200
H991        H  0.34182485  0.56862341  0.94674364     0.08200
H992        H  0.27778937  0.55441240  0.92738912     0.04980
C993        C  0.04646374  0.50502275  0.86297217    -0.20830
C994        C  0.00410222  0.51203163  0.84353986    -0.07390
C995        C  0.95408007  0.50444300  0.85595689     0.13480
C996        C  0.94838487  0.49039799  0.88690350    -0.20880
C997        C  0.99079722  0.48354970  0.90627434    -0.07400
C998        C  0.04077483  0.49107881  0.89390796     0.13470
C999        C  0.08847194  0.48373541  0.91274750    -0.24230
H1000       H  0.08479270  0.51043036  0.85392238     0.14750
H1001       H  0.91013036  0.48498305  0.89606157     0.14780
C1002       C  0.90613180  0.51125276  0.83721686    -0.24180
H1003       H  0.12297558  0.48876036  0.89910378     0.04990
H1004       H  0.07684254  0.44192814  0.92686758     0.08220
H1005       H  0.10307680  0.51503640  0.92675091     0.08220
H1006       H  0.89256662  0.48061402  0.82279670     0.08200
H1007       H  0.91696102  0.55341457  0.82356065     0.08200
H1008       H  0.87118465  0.50478091  0.85089914     0.04980
C1009       C  0.96736030  0.52455177  0.60700107    -0.20830
C1010       C  0.00699466  0.51029181  0.59595061    -0.07390
C1011       C  0.03630409  0.48156477  0.61589768     0.13480
C1012       C  0.02554483  0.46851206  0.64632026    -0.20880
C1013       C  0.98607239  0.48300303  0.65743175    -0.07400
C1014       C  0.95660705  0.51157199  0.63741566     0.13470
C1015       C  0.91505338  0.53022667  0.64785678    -0.24230
H1016       H  0.94524361  0.54693306  0.59172668     0.14750
H1017       H  0.04763504  0.44603242  0.66153600     0.14780
C1018       C  0.07766852  0.46288786  0.60528438    -0.24180
H1019       H  0.89913402  0.55545639  0.62938681     0.04990
H1020       H  0.93340556  0.55550191  0.66474290     0.08220
H1021       H  0.88020401  0.49425908  0.65741861     0.08220
H1022       H  0.11239932  0.49884924  0.59560846     0.08200
H1023       H  0.05910896  0.43765971  0.58840018     0.08200
H1024       H  0.09371232  0.43764249  0.62368140     0.04980
C1025       C  0.95334839  0.76152730  0.73645131    -0.20830
C1026       C  0.99514804  0.80243096  0.74776945    -0.07390
C1027       C  0.04090300  0.78959979  0.76114578     0.13480
C1028       C  0.04362630  0.73750058  0.76218989    -0.20880
C1029       C  0.00206822  0.69674829  0.75067074    -0.07400
C1030       C  0.95578463  0.70913795  0.73781988     0.13470
C1031       C  0.90822546  0.66800187  0.72555283    -0.24230
H1032       H  0.91803566  0.77046277  0.72628854     0.14750
H1033       H  0.07906322  0.72870828  0.77225621     0.14780
C1034       C  0.08720808  0.82961761  0.77484339    -0.24180
H1035       H  0.87568108  0.68501027  0.71689800     0.04990
H1036       H  0.89048057  0.63153796  0.74328333     0.08220
H1037       H  0.92115506  0.65570121  0.70687021     0.08220
H1038       H  0.07219979  0.84233077  0.79266539     0.08200
H1039       H  0.10731593  0.86581868  0.75760411     0.08200
H1040       H  0.11842625  0.81162615  0.78492097     0.04980
C1041       C  0.98119079  0.21897091  0.72890731    -0.20830
C1042       C  0.01291503  0.20152988  0.75226639    -0.07390
C1043       C  0.03457021  0.23389251  0.77388913     0.13480
C1044       C  0.02403165  0.28281149  0.77143724    -0.20880
C1045       C  0.99212977  0.30033010  0.74811425    -0.07400
C1046       C  0.97072066  0.26796065  0.72637301     0.13470
C1047       C  0.93827228  0.28516620  0.69989587    -0.24230
H1048       H  0.96485555  0.19422760  0.71229833     0.14750
H1049       H  0.04033029  0.30725760  0.78817494     0.15020
C1050       C  0.06707415  0.21632759  0.80023787    -0.24180
H1051       H  0.92826955  0.25667817  0.68429656     0.04990
H1052       H  0.96173012  0.32664408  0.68757203     0.08220
H1053       H  0.89949865  0.28522437  0.70717303     0.08220
H1054       H  0.10551669  0.21575944  0.79280218     0.08200
H1055       H  0.04343939  0.17491538  0.81255913     0.08200
H1056       H  0.07758961  0.24483838  0.81584344     0.04980
C1057       C  0.75970634  0.95416586  0.74593485    -0.20830
C1058       C  0.80654618  0.99934465  0.74761791    -0.07390
C1059       C  0.80161286  0.04886869  0.75130216     0.13480
C1060       C  0.75006313  0.05116993  0.75386316    -0.20880
C1061       C  0.70308060  0.00572106  0.75256253    -0.07400
C1062       C  0.70816491  0.95650336  0.74830937     0.13470
C1063       C  0.66008238  0.90546281  0.74719091    -0.24230
H1064       H  0.76349452  0.91621635  0.74322889     0.14750
H1065       H  0.74646080  0.08921482  0.75652334     0.14780
C1066       C  0.84999232  0.10012815  0.75153040    -0.24180
H1067       H  0.67221862  0.87012554  0.74580337     0.04990
H1068       H  0.63442727  0.91242280  0.72738920     0.08220
H1069       H  0.63649505  0.89403577  0.76760862     0.08220
H1070       H  0.87346979  0.11054721  0.73105855     0.08200
H1071       H  0.87595178  0.09411615  0.77132433     0.08200
H1072       H  0.83800279  0.13582511  0.75234804     0.04980
C1073       C  0.20798755  0.96894544  0.73833341    -0.20830
C1074       C  0.20450787  0.01096206  0.75093221    -0.07390
C1075       C  0.25270418  0.04776191  0.76098404     0.13480
C1076       C  0.30215463  0.04077266  0.75851924    -0.20880
C1077       C  0.30543197  0.99797105  0.74654206    -0.07400
C1078       C  0.25728542  0.96133978  0.73634640     0.13470
C1079       C  0.25648555  0.91315571  0.72397416    -0.24230
H1080       H  0.17166961  0.94132177  0.73006190     0.14750
H1081       H  0.33874062  0.06923987  0.76611857     0.14780
C1082       C  0.25333207  0.09530161  0.77387635    -0.24180
H1083       H  0.21479611  0.88768274  0.71868098     0.04990
H1084       H  0.27407316  0.88633252  0.74048408     0.08220
H1085       H  0.27949141  0.92777440  0.70310063     0.08220
H1086       H  0.23075332  0.08004360  0.79490469     0.08200
H1087       H  0.23539298  0.12228872  0.75772316     0.08200
H1088       H  0.29493601  0.12063012  0.77919850     0.04980
C1089       C  0.94814489  0.75301555  0.00128850    -0.20830
C1090       C  0.99424595  0.80031423  0.99980721    -0.07390
C1091       C  0.04598513  0.79498918  0.50080214     0.13480
C1092       C  0.04975836  0.74300305  0.50305540    -0.20880
C1093       C  0.00365927  0.69582431  0.50427856    -0.07400
C1094       C  0.95191282  0.70103727  0.00351916     0.13470
C1095       C  0.90016343  0.65242222  0.00568911    -0.24230
H1096       H  0.90847529  0.75656481  0.00086610     0.14750
H1097       H  0.08939805  0.73938918  0.50345348     0.14780
C1098       C  0.09771667  0.84350928  0.49869522    -0.24180
H1099       H  0.86410980  0.66424062  0.00663270     0.04990
H1100       H  0.90096012  0.62158443  0.52615236     0.08220
H1101       H  0.89476117  0.63380035  0.98592170     0.08220
H1102       H  0.10260991  0.86268078  0.51822111     0.08200
H1103       H  0.09716649  0.87379363  0.97799123     0.08200
H1104       H  0.13384864  0.83158423  0.49821357     0.04980
C1105       C  0.03543817  0.23197490  0.51929859    -0.20830
C1106       C  0.00206436  0.19640516  0.50151046    -0.07390
C1107       C  0.96275157  0.21299519  0.98268497     0.13480
C1108       C  0.95815155  0.26402673  0.98236476    -0.20880
C1109       C  0.99178349  0.29970163  0.99996443    -0.07400
C1110       C  0.03118684  0.28327645  0.51872968     0.13470
C1111       C  0.06849483  0.31860974  0.53871312    -0.24230
H1112       H  0.06530020  0.21956853  0.53393069     0.14750
H1113       H  0.92831697  0.27653521  0.96775115     0.14780
C1114       C  0.92619278  0.17847848  0.96213124    -0.24180
H1115       H  0.09421410  0.29750455  0.55300742     0.04990
H1116       H  0.04454734  0.32898259  0.55348899     0.08220
H1117       H  0.09606991  0.35664243  0.52522412     0.08220
H1118       H  0.89887009  0.13977110  0.97513115     0.08200
H1119       H  0.95075297  0.16945736  0.94709026     0.08200
H1120       H  0.90022907  0.19958839  0.94808488     0.04980
C1121       C  0.69941454  0.95568817  0.49514467    -0.20830
C1122       C  0.69770587  0.00372474  0.50216484    -0.07390
C1123       C  0.74690026  0.04525440  0.50696616     0.13480
C1124       C  0.79596948  0.03719171  0.50491670    -0.20880
C1125       C  0.79782740  0.98924007  0.99781610    -0.07400
C1126       C  0.74852794  0.94771342  0.99294812     0.13470
C1127       C  0.74658569  0.89408972  0.98625909    -0.24230
H1128       H  0.66187416  0.92372716  0.99161403     0.14750
H1129       H  0.83335067  0.06901923  0.50874930     0.14780
C1130       C  0.74862785  0.09901059  0.51337613    -0.24180
H1131       H  0.70448707  0.86551776  0.98501809     0.04990
H1132       H  0.76820936  0.87351599  0.50401181     0.08220
H1133       H  0.76512770  0.90137875  0.96449954     0.08220
H1134       H  0.73030359  0.09204631  0.53515717     0.08200
H1135       H  0.72662073  0.11909359  0.99561264     0.08200
H1136       H  0.79066566  0.12783439  0.51436297     0.04980
C1137       C  0.26648543  0.99107032  0.97435805    -0.20830
C1138       C  0.30031978  0.99369335  0.49967138    -0.07390
C1139       C  0.28273858  0.00311933  0.52538596     0.13480
C1140       C  0.23231117  0.00977590  0.52492802    -0.20880
C1141       C  0.19852144  0.00697500  0.49968269    -0.07400
C1142       C  0.21604142  0.99782383  0.97392404     0.13470
C1143       C  0.18305505  0.99733801  0.94549175    -0.24230
H1144       H  0.27993515  0.98444124  0.95455567     0.14750
H1145       H  0.21872987  0.01642288  0.54469129     0.14780
C1146       C  0.31557211  0.00427992  0.55384476    -0.24180
H1147       H  0.20474344  0.99341557  0.92714479     0.04990
H1148       H  0.17416871  0.03614382  0.93860041     0.08220
H1149       H  0.14470670  0.96213725  0.94850210     0.08220
H1150       H  0.35392053  0.03958834  0.55067394     0.08200
H1151       H  0.32408974  0.96536610  0.56110052     0.08200
H1152       H  0.29384013  0.00871487  0.57201405     0.04980
C1153       C  0.96842430  0.02233182  0.85468959    -0.20830
C1154       C  0.01351046  0.01592495  0.84420718    -0.07390
C1155       C  0.04688819  0.99310297  0.86466416     0.13480
C1156       C  0.03438233  0.97779611  0.89488342    -0.20880
C1157       C  0.98931823  0.98423058  0.90538510    -0.07400
C1158       C  0.95594791  0.00707517  0.88492396     0.13470
C1159       C  0.90824678  0.01739844  0.89469046    -0.24230
H1160       H  0.94309409  0.04020926  0.83910223     0.14750
H1161       H  0.05976469  0.95996803  0.91045193     0.14780
C1162       C  0.09470211  0.98293989  0.85491381    -0.24180
H1163       H  0.88923874  0.03892071  0.87591931     0.04990
H1164       H  0.92148902  0.04339309  0.91159107     0.08220
H1165       H  0.87685597  0.97797413  0.90402093     0.08220
H1166       H  0.12606801  0.02241883  0.84563612     0.08200
H1167       H  0.08158297  0.95702387  0.83797405     0.08200
H1168       H  0.11372058  0.96142807  0.87368879     0.04980
C1169       C  0.97128221  0.02340958  0.63710883    -0.20830
C1170       C  0.99395081  0.98637683  0.65483625    -0.07390
C1171       C  0.02416364  0.96334339  0.64149890     0.13480
C1172       C  0.03150220  0.97849969  0.61070141    -0.20880
C1173       C  0.00877696  0.01549702  0.59294260    -0.07400
C1174       C  0.97867640  0.03864508  0.60631879     0.13470
C1175       C  0.95612304  0.08099402  0.58840836    -0.24230
H1176       H  0.94833310  0.04105716  0.64750107     0.14750
H1177       H  0.05447214  0.96083451  0.60033829     0.14780
C1178       C  0.04699587  0.92130790  0.65951528    -0.24180
H1179       H  0.93625997  0.09683241  0.60267100     0.04990
H1180       H  0.92549860  0.06283068  0.57213254     0.08220
H1181       H  0.98922719  0.11623724  0.57649473     0.08220
H1182       H  0.01397891  0.88589014  0.67137695     0.08200
H1183       H  0.07729521  0.93967967  0.67587241     0.08200
H1184       H  0.06727228  0.90571588  0.64533809     0.04980
loop_ 
_geom_bond_atom_site_label_1 
_geom_bond_atom_site_label_2 
_geom_bond_distance 
_geom_bond_site_symmetry_2 
_ccdc_geom_bond_type 
O1           Ni7   1.929       .  S
O1           C22   1.269       .  A
O2          Ni25   1.893       .  S
O2          C603   1.262   1_565  A
O3           H26   0.966       .  S
O3          Ni19   1.905   1_565  S
O3         Ni599   1.925   1_554  S
O3         Ni617   1.908   1_654  S
C4           O21   1.267   1_454  A
C4           O13   1.276       .  A
C4          C514   1.490       .  S
O5          Ni24   1.938       .  S
O5           C11   1.273       .  A
O6          Ni24   1.907       .  S
O6            C8   1.268       .  A
Ni7          O10   1.929       .  S
Ni7          O12   1.904       .  S
Ni7         O595   1.925       .  S
C8           O18   1.273   1_455  A
C8          C581   1.477       .  S
O9          Ni25   1.896       .  S
O9           C15   1.266   1_455  A
O10          C15   1.275       .  A
C11         O594   1.262   1_544  A
C11         C549   1.483   1_554  S
O12          C14   1.267       .  A
O13         Ni24   1.935       .  S
C14          O20   1.272   1_655  A
C14         C565   1.485       .  S
C15         C498   1.488       .  S
H16          O17   0.966       .  S
O17         Ni25   1.907   1_545  S
O17        Ni611   1.912   1_455  S
O17        Ni616   1.923       .  S
O18         Ni19   1.934       .  S
Ni19         O23   1.900       .  S
Ni19         O21   1.896   1_554  S
Ni19        O609   1.912   1_654  S
O20         Ni25   1.929       .  S
C22         O615   1.266   1_565  A
C22         C533   1.488       .  S
O23         C614   1.266   1_544  A
Ni24        O609   1.923   1_554  S
Ni25        O595   1.908   1_455  S
O27         Ni33   1.937       .  S
O27          C48   1.273       .  A
O28         Ni51   1.901       .  S
O28          C37   1.266   1_565  A
O29          H52   0.966       .  S
O29         Ni33   1.920       .  S
O29         Ni51   1.910   1_655  S
O29         Ni45   1.909   1_565  S
C30          O47   1.270   1_455  A
C30          O39   1.274       .  A
C30         C450   1.480       .  S
O31         Ni50   1.926       .  S
O31          C37   1.268       .  A
O32         Ni50   1.903       .  S
O32          C34   1.266       .  A
Ni33         O36   1.933       .  S
Ni33         O38   1.908       .  S
C34          O44   1.271   1_455  A
C34         C562   1.484       .  S
O35         Ni51   1.904       .  S
O35          C41   1.270   1_455  A
O36          C41   1.277       .  A
C37         C482   1.489       .  S
O38          C40   1.268       .  A
O39         Ni50   1.928       .  S
C40          O46   1.271   1_655  A
C40         C578   1.476       .  S
C41         C434   1.499       .  S
H42          O43   0.966       .  S
O43         Ni51   1.908   1_545  S
O43         Ni45   1.904   1_455  S
O43         Ni50   1.921       .  S
O44         Ni45   1.928       .  S
Ni45         O49   1.889       .  S
Ni45         O47   1.903       .  S
O46         Ni51   1.929       .  S
C48          O49   1.261   1_565  A
C48         C466   1.481       .  S
O53         Ni59   1.941       .  S
O53         C666   1.272       .  A
O54         Ni77   1.901       .  S
O54         C655   1.264       .  A
O55          H78   0.966       .  S
O55         Ni71   1.902       .  S
O55        Ni651   1.923   1_554  S
O55        Ni669   1.911   1_654  S
C56          O73   1.266   1_454  A
C56          O65   1.277       .  A
C56         C501   1.487       .  S
O57         Ni76   1.938       .  S
O57          C63   1.272       .  A
O58         Ni76   1.902       .  S
O58          C60   1.267       .  A
Ni59         O62   1.930       .  S
Ni59         O64   1.911       .  S
Ni59        O647   1.923       .  S
C60          O70   1.274   1_455  A
C60         C418   1.482       .  S
O61         Ni77   1.898       .  S
O61          C67   1.268   1_455  A
O62          C67   1.276       .  A
C63         O646   1.264   1_554  A
C63         C389   1.475       .  S
O64          C66   1.271       .  A
O65         Ni76   1.935       .  S
C66          O72   1.270   1_655  A
C66         C405   1.497       .  S
C67         C517   1.488       .  S
H68          O69   0.966       .  S
O69         Ni77   1.906       .  S
O69        Ni663   1.912   1_455  S
O69        Ni668   1.923       .  S
O70         Ni71   1.935       .  S
Ni71         O75   1.903       .  S
Ni71         O73   1.892   1_554  S
Ni71        O661   1.912   1_654  S
O72         Ni77   1.926       .  S
C74          O75   1.266   1_556  A
C74         O645   1.272       .  A
C74         C370   1.492       .  S
Ni76        O661   1.923   1_554  S
Ni77        O647   1.911   1_455  S
O79         Ni85   1.931       .  S
O79         C100   1.271       .  A
O80        Ni103   1.901       .  S
O80          C89   1.267       .  A
O81         H104   0.966       .  S
O81         Ni85   1.925       .  S
O81        Ni103   1.911   1_655  S
O81         Ni97   1.913       .  S
C82          O99   1.265   1_455  A
C82          O91   1.275       .  A
C82         C437   1.498       .  S
O83        Ni102   1.931       .  S
O83          C89   1.272       .  A
O84        Ni102   1.907       .  S
O84          C86   1.271       .  A
Ni85         O88   1.934       .  S
Ni85         O90   1.900       .  S
C86          O96   1.274   1_455  A
C86         C402   1.500       .  S
O87        Ni103   1.899       .  S
O87          C93   1.267   1_455  A
O88          C93   1.272       .  A
C89         C354   1.482       .  S
O90          C92   1.268       .  A
O91        Ni102   1.936       .  S
C92          O98   1.277   1_655  A
C92         C421   1.485       .  S
C93         C453   1.486       .  S
H94          O95   0.966       .  S
O95        Ni103   1.912       .  S
O95         Ni97   1.906   1_455  S
O95        Ni102   1.923       .  S
O96         Ni97   1.940       .  S
Ni97        O101   1.896       .  S
Ni97         O99   1.899       .  S
O98        Ni103   1.944       .  S
C100        O101   1.264       .  A
C100        C338   1.479       .  S
O105       Ni111   1.941       .  S
O105        C718   1.274       .  A
O106       Ni129   1.901       .  S
O106        C707   1.266   1_565  A
O107        H130   0.964       .  S
O107       Ni123   1.908   1_565  S
O107       Ni703   1.916   1_554  S
O107       Ni721   1.908   1_554  S
C108        O125   1.273       .  A
C108        O117   1.273       .  A
C108        C290   1.498       .  S
O109       Ni128   1.929       .  S
O109        C115   1.269       .  A
O110       Ni128   1.904       .  S
O110        C112   1.268       .  A
Ni111       O114   1.933       .  S
Ni111       O116   1.907       .  S
Ni111       O699   1.916       .  S
C112        O122   1.269       .  A
C112        C325   1.483       .  S
O113       Ni129   1.907       .  S
O113        C119   1.272       .  A
O114        C119   1.276       .  A
C115        O698   1.266   1_544  A
C115        C530   1.485       .  S
O116        C118   1.269       .  A
O117       Ni128   1.926       .  S
C118        O124   1.270       .  A
C118        C306   1.478       .  S
C119        C277   1.479       .  S
H120        O121   0.966       .  S
O121       Ni129   1.909   1_545  S
O121       Ni715   1.907       .  S
O121       Ni720   1.918       .  S
O122       Ni123   1.922       .  S
Ni123       O127   1.895       .  S
Ni123       O125   1.911       .  S
Ni123       O713   1.907   1_554  S
O124       Ni129   1.918       .  S
C126        O127   1.263   1_566  A
C126        O697   1.274       .  A
C126        C546   1.487       .  S
Ni128       O713   1.918   1_554  S
Ni129       O699   1.908       .  S
O131       Ni137   1.927       .  S
O131        C152   1.268       .  A
O132       Ni155   1.889       .  S
O132        C141   1.262   1_565  A
O133        H156   0.966       .  S
O133       Ni137   1.920       .  S
O133       Ni155   1.902       .  S
O133       Ni149   1.905   1_565  S
C134        O151   1.269       .  A
C134        O143   1.274       .  A
C134        C258   1.486       .  S
O135       Ni154   1.937       .  S
O135        C141   1.274       .  A
O136       Ni154   1.904       .  S
O136        C138   1.269       .  A
Ni137       O140   1.925       .  S
Ni137       O142   1.903       .  S
C138        O148   1.274       .  A
C138        C309   1.482       .  S
O139       Ni155   1.914       .  S
O139        C145   1.273       .  A
O140        C145   1.275       .  A
C141        C469   1.487       .  S
O142        C144   1.268       .  A
O143       Ni154   1.936       .  S
C144        O150   1.268       .  A
C144        C322   1.483       .  S
C145        C242   1.481       .  S
H146        O147   0.964       .  S
O147       Ni155   1.918   1_545  S
O147       Ni149   1.911       .  S
O147       Ni154   1.920       .  S
O148       Ni149   1.929       .  S
Ni149       O153   1.900       .  S
Ni149       O151   1.904       .  S
O150       Ni155   1.922       .  S
C152        O153   1.266   1_565  A
C152        C485   1.488       .  S
O157       Ni163   1.941       .  S
O157        C178   1.273       .  A
O158       Ni181   1.906       .  S
O158        C759   1.267       .  A
O159        H182   0.966       .  S
O159       Ni175   1.906       .  S
O159       Ni755   1.914   1_554  S
O159       Ni773   1.908   1_554  S
C160        O177   1.274       .  A
C160        O169   1.275       .  A
C160        C274   1.482       .  S
O161       Ni180   1.941       .  S
O161        C167   1.273       .  A
O162       Ni180   1.912       .  S
O162        C164   1.270       .  A
Ni163       O166   1.935       .  S
Ni163       O168   1.905       .  S
Ni163       O751   1.914       .  S
C164        O174   1.269       .  A
C164        C229   1.472       .  S
O165       Ni181   1.907       .  S
O165        C171   1.274       .  A
O166        C171   1.276       .  A
C167        O750   1.267   1_554  A
C167        C373   1.494       .  S
O168        C170   1.268       .  A
O169       Ni180   1.928       .  S
C170        O176   1.270       .  A
C170        C210   1.479       .  S
C171        C293   1.499       .  S
H172        O173   0.966       .  S
O173       Ni181   1.909       .  S
O173       Ni767   1.910       .  S
O173       Ni772   1.919       .  S
O174       Ni175   1.918       .  S
Ni175       O179   1.903       .  S
Ni175       O177   1.913       .  S
Ni175       O765   1.910   1_554  S
O176       Ni181   1.923       .  S
C178        O771   1.266       .  A
C178        C978   1.478       .  S
O179        C770   1.266   1_554  A
Ni180       O765   1.919   1_554  S
Ni181       O751   1.908       .  S
O183       Ni189   1.933       .  S
O183        C204   1.271       .  A
O184       Ni207   1.896       .  S
O184        C193   1.265       .  A
O185        H208   0.966       .  S
O185       Ni189   1.927       .  S
O185       Ni207   1.913       .  S
O185       Ni201   1.914       .  S
C186        O203   1.268       .  A
C186        O195   1.275       .  A
C186        C245   1.486       .  S
O187       Ni206   1.936       .  S
O187        C193   1.272       .  A
O188       Ni206   1.902       .  S
O188        C190   1.269       .  A
Ni189       O192   1.926       .  S
Ni189       O194   1.907       .  S
C190        O200   1.273       .  A
C190        C213   1.481       .  S
O191       Ni207   1.911       .  S
O191        C197   1.271       .  A
O192        C197   1.272       .  A
C193        C341   1.483       .  S
O194        C196   1.269       .  A
O195       Ni206   1.938       .  S
C196        O202   1.271       .  A
C196        C226   1.470       .  S
C197        C261   1.488       .  S
H198        O199   0.966       .  S
O199       Ni207   1.912       .  S
O199       Ni201   1.908       .  S
O199       Ni206   1.923       .  S
O200       Ni201   1.933       .  S
Ni201       O205   1.899       .  S
Ni201       O203   1.901       .  S
O202       Ni207   1.926       .  S
C204        O205   1.265       .  A
C204        C357   1.479       .  S
C209        C210   1.403       .  A
C209        C214   1.403       .  A
C209        H216   1.084       .  S
C210        C211   1.416       .  A
C211        C212   1.403       .  A
C211        C218   1.509       .  S
C212        C213   1.404       .  A
C212        H217   1.084       .  S
C213        C214   1.417       .  A
C214        C215   1.509       .  S
C215        H219   1.111       .  S
C215        H220   1.109       .  S
C215        H221   1.111       .  S
C218        H222   1.111       .  S
C218        H223   1.109       .  S
C218        H224   1.111       .  S
C225        C226   1.402       .  A
C225        C230   1.404       .  A
C225        H232   1.084       .  S
C226        C227   1.411       .  A
C227        C228   1.403       .  A
C227        C234   1.507       .  S
C228        C229   1.402       .  A
C228        H233   1.084       .  S
C229        C230   1.413       .  A
C230        C231   1.507       .  S
C231        H235   1.111       .  S
C231        H236   1.111       .  S
C231        H237   1.110       .  S
C234        H238   1.110       .  S
C234        H239   1.111       .  S
C234        H240   1.111       .  S
C241        C242   1.404       .  A
C241        C246   1.403       .  A
C241        H248   1.084       .  S
C242        C243   1.414       .  A
C243        C244   1.406       .  A
C243        C250   1.508       .  S
C244        C245   1.407       .  A
C244        H249   1.084       .  S
C245        C246   1.417       .  A
C246        C247   1.508       .  S
C247        H251   1.111       .  S
C247        H252   1.109       .  S
C247        H253   1.110       .  S
C250        H254   1.110       .  S
C250        H255   1.105       .  S
C250        H256   1.111       .  S
C257        C258   1.403       .  A
C257        C262   1.405       .  A
C257        H264   1.084       .  S
C258        C259   1.417       .  A
C259        C260   1.406       .  A
C259        C266   1.508       .  S
C260        C261   1.405       .  A
C260        H265   1.084       .  S
C261        C262   1.418       .  A
C262        C263   1.508       .  S
C263        H267   1.108       .  S
C263        H268   1.109       .  S
C263        H269   1.110       .  S
C266        H270   1.111       .  S
C266        H271   1.109       .  S
C266        H272   1.111       .  S
C273        C274   1.405       .  A
C273        C278   1.405       .  A
C273        H280   1.084       .  S
C274        C867   1.416   1_554  A
C275        C276   1.405       .  A
C275        C866   1.416       .  A
C275        C282   1.508       .  S
C276        C277   1.403       .  A
C276        H281   1.085       .  S
C277        C870   1.414       .  A
C278        C869   1.414   1_554  A
C278        C279   1.507       .  S
C279        H283   1.111       .  S
C279        H284   1.109       .  S
C279        H285   1.111       .  S
C282        H286   1.111       .  S
C282        H287   1.109       .  S
C282        H288   1.111       .  S
C289        C294   1.406       .  A
C289        C882   1.407       .  A
C289        H296   1.084       .  S
C290        C291   1.421       .  A
C290        C881   1.407   1_554  A
C291        C292   1.405       .  A
C291        C298   1.510       .  S
C292        C885   1.407   1_554  A
C292        H297   1.083       .  S
C293        C294   1.422       .  A
C293        C884   1.407       .  A
C294        C295   1.509       .  S
C295        H299   1.111       .  S
C295        H300   1.110       .  S
C295        H893   1.110       .  S
C298        H302   1.110       .  S
C298        H303   1.110       .  S
C298        H304   1.111       .  S
H301        C887   1.110       .  S
C305        C306   1.404       .  A
C305        C310   1.402       .  A
C305        H312   1.084       .  S
C306        C307   1.414   1_565  A
C307        C308   1.402       .  A
C307        C314   1.509       .  S
C308        C309   1.407       .  A
C308        H313   1.084       .  S
C309        C310   1.417   1_545  A
C310        C311   1.509       .  S
C311        H315   1.111       .  S
C311        H316   1.109   1_565  S
C311        H317   1.111       .  S
C314        H318   1.111       .  S
C314        H319   1.109   1_545  S
C314        H320   1.111       .  S
C321        C322   1.403       .  A
C321        C326   1.402       .  A
C321        H328   1.084       .  S
C322        C323   1.418   1_565  A
C323        C324   1.402       .  A
C323        C330   1.507       .  S
C324        C325   1.403       .  A
C324        H329   1.084       .  S
C325        C326   1.417   1_545  A
C326        C327   1.507       .  S
C327        H331   1.111       .  S
C327        H332   1.109       .  S
C327        H333   1.107       .  S
C330        H334   1.109       .  S
C330        H335   1.108       .  S
C330        H336   1.111       .  S
C337        C338   1.403       .  A
C337        C342   1.404       .  A
C337        H344   1.084       .  S
C338        C339   1.415       .  A
C339        C340   1.403       .  A
C339        C346   1.508       .  S
C340        C341   1.405       .  A
C340        H345   1.084       .  S
C341        C342   1.417       .  A
C342        C343   1.508       .  S
C343        H347   1.111       .  S
C343        H348   1.111       .  S
C343        H349   1.109       .  S
C346        H350   1.109       .  S
C346        H351   1.110       .  S
C346        H352   1.111       .  S
C353        C354   1.404       .  A
C353        C358   1.405       .  A
C353        H360   1.084       .  S
C354        C355   1.417       .  A
C355        C356   1.404       .  A
C355        C362   1.508       .  S
C356        C357   1.402       .  A
C356        H361   1.084       .  S
C357        C358   1.415       .  A
C358        C359   1.508       .  S
C359        H363   1.111       .  S
C359        H364   1.111       .  S
C359        H365   1.109       .  S
C362        H366   1.109       .  S
C362        H367   1.111       .  S
C362        H368   1.111       .  S
C369        C370   1.406   1_554  A
C369        C374   1.407       .  A
C369        H376   1.084       .  S
C370        C963   1.418       .  A
C371        C372   1.406       .  A
C371        C962   1.418       .  A
C371        C378   1.508       .  S
C372        C965   1.407       .  A
C372        H377   1.084       .  S
C373        C374   1.419       .  A
C373        C964   1.407   1_554  A
C374        C375   1.508       .  S
C375        H379   1.111       .  S
C375        H380   1.111       .  S
C375        H381   1.109       .  S
C378        H382   1.109       .  S
C378        H383   1.111       .  S
C378        H384   1.111       .  S
C385        C386   1.403   1_554  A
C385        C390   1.405       .  A
C385        H392   1.084       .  S
C386        C770   1.478       .  S
C386        C979   1.414       .  A
C387        C388   1.405       .  A
C387        C978   1.414       .  A
C387        C394   1.507       .  S
C388        C981   1.402       .  A
C388        H393   1.084       .  S
C389        C390   1.412       .  A
C389        C980   1.402   1_554  A
C390        C391   1.507       .  S
C391        H395   1.111       .  S
C391        H396   1.111       .  S
C391        H397   1.109       .  S
C394        H398   1.109       .  S
C394        H399   1.111       .  S
C394        H400   1.111       .  S
C401        C402   1.408       .  A
C401        C406   1.405       .  A
C401        H408   1.083       .  S
C402        C403   1.423   1_455  A
C403        C404   1.406       .  A
C403        C410   1.509       .  S
C404        C405   1.406       .  A
C404        H409   1.084       .  S
C405        C406   1.421   1_655  A
C406        C407   1.510       .  S
C407        H411   1.111       .  S
C407        H412   1.111       .  S
C407        H413   1.110       .  S
C410        H414   1.110       .  S
C410        H415   1.110       .  S
C410        H416   1.111       .  S
C417        C418   1.404   1_655  A
C417        C422   1.404       .  A
C417        H424   1.084       .  S
C418        C419   1.416       .  A
C419        C420   1.404       .  A
C419        C426   1.509       .  S
C420        C421   1.405   1_455  A
C420        H425   1.084       .  S
C421        C422   1.418       .  A
C422        C423   1.509       .  S
C423        H427   1.111       .  S
C423        H428   1.111       .  S
C423        H429   1.109       .  S
C426        H430   1.109       .  S
C426        H431   1.111       .  S
C426        H432   1.111       .  S
C433        C434   1.408       .  A
C433        C438   1.405       .  A
C433        H440   1.083       .  S
C434        C435   1.421   1_655  A
C435        C436   1.403       .  A
C435        C442   1.509       .  S
C436        C437   1.407       .  A
C436        H441   1.083       .  S
C437        C438   1.421   1_455  A
C438        C439   1.510       .  S
C439        H443   1.111       .  S
C439        H444   1.110       .  S
C439        H445   1.110       .  S
C442        H446   1.110       .  S
C442        H447   1.107       .  S
C442        H448   1.111       .  S
C449        C450   1.403   1_655  A
C449        C454   1.403       .  A
C449        H456   1.084       .  S
C450        C451   1.415       .  A
C451        C452   1.403       .  A
C451        C458   1.509       .  S
C452        C453   1.406   1_455  A
C452        H457   1.084       .  S
C453        C454   1.419       .  A
C454        C455   1.509       .  S
C455        H459   1.111       .  S
C455        H460   1.111       .  S
C455        H461   1.109       .  S
C458        H462   1.109       .  S
C458        H463   1.111       .  S
C458        H464   1.111       .  S
C465        C466   1.402       .  A
C465        C470   1.401       .  A
C465        H472   1.084       .  S
C466        C467   1.417   1_565  A
C467        C468   1.403       .  A
C467        C474   1.509       .  S
C468        C469   1.405       .  A
C468        H473   1.084       .  S
C469        C470   1.420   1_545  A
C470        C471   1.507       .  S
C471        H475   1.111       .  S
C471        H476   1.109       .  S
C471        H477   1.106       .  S
C474        H478   1.110       .  S
C474        H479   1.109       .  S
C474        H480   1.111       .  S
C481        C482   1.404   1_565  A
C481        C486   1.402       .  A
C481        H488   1.082       .  S
C482        C483   1.420       .  A
C483        C484   1.402       .  A
C483        C490   1.509       .  S
C484        C485   1.404   1_545  A
C484        H489   1.084       .  S
C485        C486   1.420       .  A
C486        C487   1.510       .  S
C487        H491   1.111       .  S
C487        H492   1.110       .  S
C487        H493   1.110       .  S
C490        H494   1.110       .  S
C490        H495   1.110       .  S
C490        H496   1.108       .  S
C497        C498   1.406       .  A
C497        C502   1.402       .  A
C497        H504   1.084       .  S
C498       C1091   1.420   1_655  A
C499        C500   1.402       .  A
C499       C1090   1.420   1_454  A
C499        C506   1.509   1_554  S
C500        C501   1.405       .  A
C500        H505   1.084       .  S
C501       C1094   1.420   1_455  A
C502       C1093   1.420   1_655  A
C502        C503   1.511       .  S
C503        H507   1.111       .  S
C503        H509   1.110       .  S
C503       H1100   1.111       .  S
C506        H510   1.110   1_556  S
C506        H512   1.111       .  S
C506       H1103   1.109       .  S
H508       C1095   1.111       .  S
H511       C1098   1.109       .  S
C513        C514   1.407       .  A
C513        C518   1.403       .  A
C513        H520   1.084       .  S
C514       C1107   1.420   1_454  A
C515        C516   1.402       .  A
C515       C1106   1.420   1_655  A
C515        C522   1.509       .  S
C516        C517   1.405       .  A
C516        H521   1.084       .  S
C517       C1110   1.419   1_655  A
C518       C1109   1.419   1_454  A
C518        C519   1.510       .  S
C519        H523   1.111       .  S
C519        H524   1.110       .  S
C519        H525   1.110       .  S
C522        H526   1.108       .  S
C522        H527   1.110       .  S
C522        H528   1.111       .  S
C529        C530   1.404   1_566  A
C529       C1126   1.403       .  A
C529       H1128   1.084       .  S
C530        C531   1.418       .  A
C531        C532   1.402       .  A
C531        C538   1.509       .  S
C532       C1125   1.405   1_544  A
C532        H537   1.083       .  S
C533        C534   1.420       .  A
C533       C1124   1.405   1_565  A
C534       C1121   1.403       .  A
C534        C535   1.509       .  S
C535        H539   1.111       .  S
C535        H541   1.110       .  S
C535       H1132   1.110       .  S
H536       C1121   1.084       .  S
C538        H542   1.109       .  S
C538        H544   1.111       .  S
C538       H1135   1.110   1_554  S
H540       C1127   1.110   1_554  S
H543       C1130   1.110       .  S
C545        C550   1.405       .  A
C545       C1138   1.405       .  A
C545        H552   1.084       .  S
C546        C547   1.419   1_566  A
C546       C1137   1.405       .  A
C547        C548   1.403       .  A
C547        C554   1.509       .  S
C548        C549   1.402   1_554  A
C548        H553   1.084       .  S
C549       C1142   1.417   1_545  A
C550       C1141   1.417   1_565  A
C550        C551   1.509       .  S
C551        H555   1.111       .  S
C551        H556   1.110   1_565  S
C551        H557   1.108       .  S
C554        H558   1.109       .  S
C554        H559   1.109   1_545  S
C554        H560   1.111       .  S
C561        C562   1.405   1_655  A
C561        C566   1.404       .  A
C561        H568   1.084       .  S
C562        C563   1.417   1_545  A
C563        C564   1.404       .  A
C563        C570   1.509       .  S
C564        C565   1.405   1_455  A
C564        H569   1.084       .  S
C565        C566   1.417   1_565  A
C566        C567   1.509       .  S
C567        H571   1.111       .  S
C567        H572   1.111       .  S
C567        H573   1.109   1_545  S
C570        H574   1.109   1_565  S
C570        H575   1.111       .  S
C570        H576   1.111       .  S
C577        C578   1.402   1_545  A
C577        C582   1.405       .  A
C577        H584   1.084       .  S
C578        C579   1.414   1_655  A
C579        C580   1.405       .  A
C579        C586   1.508       .  S
C580        C581   1.403   1_565  A
C580        H585   1.084       .  S
C581        C582   1.415   1_455  A
C582        C583   1.509       .  S
C583        H587   1.111       .  S
C583        H588   1.109       .  S
C583        H589   1.111       .  S
C586        H590   1.111       .  S
C586        H591   1.110       .  S
C586        H592   1.111       .  S
O593       Ni599   1.929       .  S
O593        C614   1.269       .  A
O594       Ni617   1.893       .  S
O595        H618   0.966       .  S
O595       Ni611   1.905   1_565  S
C596        O613   1.267   1_455  A
C596        O605   1.276       .  A
C596       C1106   1.490       .  S
O597       Ni616   1.938       .  S
O597        C603   1.273       .  A
O598       Ni616   1.907       .  S
O598        C600   1.268       .  A
Ni599       O602   1.929       .  S
Ni599       O604   1.904       .  S
C600        O610   1.273   1_455  A
C600       C1173   1.477       .  S
O601       Ni617   1.896   1_554  S
O601        C607   1.266   1_454  A
O602        C607   1.275       .  A
C603       C1141   1.483       .  S
O604        C606   1.267       .  A
O605       Ni616   1.935       .  S
C606        O612   1.272   1_655  A
C606       C1157   1.485       .  S
C607       C1090   1.488       .  S
H608        O609   0.966       .  S
O609       Ni617   1.907   1_545  S
O610       Ni611   1.934       .  S
Ni611       O615   1.900       .  S
Ni611       O613   1.896       .  S
O612       Ni617   1.929       .  S
C614       C1125   1.488       .  S
O619       Ni625   1.937       .  S
O619        C640   1.273       .  A
O620       Ni643   1.901       .  S
O620        C629   1.266   1_565  A
O621        H644   0.966       .  S
O621       Ni625   1.920       .  S
O621       Ni643   1.910   1_655  S
O621       Ni637   1.909   1_565  S
C622        O639   1.270   1_455  A
C622        O631   1.274       .  A
C622       C1042   1.480       .  S
O623       Ni642   1.926       .  S
O623        C629   1.268       .  A
O624       Ni642   1.903       .  S
O624        C626   1.266       .  A
Ni625       O628   1.933       .  S
Ni625       O630   1.908       .  S
C626        O636   1.271   1_455  A
C626       C1154   1.484       .  S
O627       Ni643   1.904       .  S
O627        C633   1.270   1_455  A
O628        C633   1.277       .  A
C629       C1074   1.489       .  S
O630        C632   1.268       .  A
O631       Ni642   1.928       .  S
C632        O638   1.271   1_655  A
C632       C1170   1.476       .  S
C633       C1026   1.499       .  S
H634        O635   0.966       .  S
O635       Ni643   1.908   1_545  S
O635       Ni637   1.904   1_455  S
O635       Ni642   1.921       .  S
O636       Ni637   1.928       .  S
Ni637       O641   1.889       .  S
Ni637       O639   1.903       .  S
O638       Ni643   1.929       .  S
C640        O641   1.261   1_565  A
C640       C1058   1.481       .  S
O645       Ni651   1.941       .  S
O646       Ni669   1.901       .  S
O647        H670   0.966       .  S
O647       Ni663   1.902       .  S
C648        O665   1.266   1_455  A
C648        O657   1.277       .  A
C648       C1093   1.487       .  S
O649       Ni668   1.938       .  S
O649        C655   1.272       .  A
O650       Ni668   1.902       .  S
O650        C652   1.267       .  A
Ni651       O654   1.930       .  S
Ni651       O656   1.911       .  S
C652        O662   1.274   1_455  A
C652       C1010   1.482       .  S
O653       Ni669   1.898   1_554  S
O653        C659   1.268   1_454  A
O654        C659   1.276       .  A
C655        C981   1.475       .  S
O656        C658   1.271       .  A
O657       Ni668   1.935       .  S
C658        O664   1.270   1_655  A
C658        C997   1.497       .  S
C659       C1109   1.488       .  S
H660        O661   0.966       .  S
O661       Ni669   1.906       .  S
O662       Ni663   1.935       .  S
Ni663       O667   1.903       .  S
Ni663       O665   1.892       .  S
O664       Ni669   1.926       .  S
C666        O667   1.266       .  A
C666        C962   1.492       .  S
O671       Ni677   1.931       .  S
O671        C692   1.271       .  A
O672       Ni695   1.901       .  S
O672        C681   1.267       .  A
O673        H696   0.966       .  S
O673       Ni677   1.925       .  S
O673       Ni695   1.911   1_655  S
O673       Ni689   1.913       .  S
C674        O691   1.265   1_455  A
C674        O683   1.275       .  A
C674       C1029   1.498       .  S
O675       Ni694   1.931       .  S
O675        C681   1.272       .  A
O676       Ni694   1.907       .  S
O676        C678   1.271       .  A
Ni677       O680   1.934       .  S
Ni677       O682   1.900       .  S
C678        O688   1.274   1_455  A
C678        C994   1.500       .  S
O679       Ni695   1.899       .  S
O679        C685   1.267   1_455  A
O680        C685   1.272       .  A
C681        C946   1.482       .  S
O682        C684   1.268       .  A
O683       Ni694   1.936       .  S
C684        O690   1.277   1_655  A
C684       C1013   1.485       .  S
C685       C1045   1.486       .  S
H686        O687   0.966       .  S
O687       Ni695   1.912       .  S
O687       Ni689   1.906   1_455  S
O687       Ni694   1.923       .  S
O688       Ni689   1.940       .  S
Ni689       O693   1.896       .  S
Ni689       O691   1.899       .  S
O690       Ni695   1.944       .  S
C692        O693   1.264       .  A
C692        C930   1.479       .  S
O697       Ni703   1.941       .  S
O698       Ni721   1.901       .  S
O699        H722   0.964       .  S
O699       Ni715   1.908   1_565  S
C700        O717   1.273       .  A
C700        O709   1.273       .  A
C700        C882   1.498       .  S
O701       Ni720   1.929       .  S
O701        C707   1.269       .  A
O702       Ni720   1.904       .  S
O702        C704   1.268       .  A
Ni703       O706   1.933       .  S
Ni703       O708   1.907       .  S
C704        O714   1.269       .  A
C704        C917   1.483       .  S
O705       Ni721   1.907   1_554  S
O705        C711   1.272   1_554  A
O706        C711   1.276       .  A
C707       C1122   1.485       .  S
O708        C710   1.269       .  A
O709       Ni720   1.926       .  S
C710        O716   1.270       .  A
C710        C898   1.478       .  S
C711        C869   1.479       .  S
H712        O713   0.966       .  S
O713       Ni721   1.909   1_545  S
O714       Ni715   1.922       .  S
Ni715       O719   1.895       .  S
Ni715       O717   1.911       .  S
O716       Ni721   1.918       .  S
C718        O719   1.263   1_565  A
C718       C1138   1.487       .  S
O723       Ni729   1.927       .  S
O723        C744   1.268       .  A
O724       Ni747   1.889       .  S
O724        C733   1.262   1_565  A
O725        H748   0.966       .  S
O725       Ni729   1.920       .  S
O725       Ni747   1.902       .  S
O725       Ni741   1.905   1_565  S
C726        O743   1.269       .  A
C726        O735   1.274       .  A
C726        C850   1.486       .  S
O727       Ni746   1.937       .  S
O727        C733   1.274       .  A
O728       Ni746   1.904       .  S
O728        C730   1.269       .  A
Ni729       O732   1.925       .  S
Ni729       O734   1.903       .  S
C730        O740   1.274       .  A
C730        C901   1.482       .  S
O731       Ni747   1.914       .  S
O731        C737   1.273       .  A
O732        C737   1.275       .  A
C733       C1061   1.487       .  S
O734        C736   1.268       .  A
O735       Ni746   1.936       .  S
C736        O742   1.268       .  A
C736        C914   1.483       .  S
C737        C834   1.481       .  S
H738        O739   0.964       .  S
O739       Ni747   1.918   1_545  S
O739       Ni741   1.911       .  S
O739       Ni746   1.920       .  S
O740       Ni741   1.929       .  S
Ni741       O745   1.900       .  S
Ni741       O743   1.904       .  S
O742       Ni747   1.922       .  S
C744        O745   1.266   1_565  A
C744       C1077   1.488       .  S
O749       Ni755   1.941       .  S
O749        C770   1.273       .  A
O750       Ni773   1.906       .  S
O751        H774   0.966       .  S
O751       Ni767   1.906       .  S
C752        O769   1.274       .  A
C752        O761   1.275       .  A
C752        C866   1.482       .  S
O753       Ni772   1.941       .  S
O753        C759   1.273       .  A
O754       Ni772   1.912       .  S
O754        C756   1.270       .  A
Ni755       O758   1.935       .  S
Ni755       O760   1.905       .  S
C756        O766   1.269       .  A
C756        C821   1.472       .  S
O757       Ni773   1.907   1_554  S
O757        C763   1.274   1_554  A
O758        C763   1.276       .  A
C759        C965   1.494       .  S
O760        C762   1.268       .  A
O761       Ni772   1.928       .  S
C762        O768   1.270       .  A
C762        C802   1.479       .  S
C763        C885   1.499       .  S
H764        O765   0.966       .  S
O765       Ni773   1.909       .  S
O766       Ni767   1.918       .  S
Ni767       O771   1.903       .  S
Ni767       O769   1.913       .  S
O768       Ni773   1.923       .  S
O775       Ni781   1.933       .  S
O775        C796   1.271       .  A
O776       Ni799   1.896       .  S
O776        C785   1.265       .  A
O777        H800   0.966       .  S
O777       Ni781   1.927       .  S
O777       Ni799   1.913       .  S
O777       Ni793   1.914       .  S
C778        O795   1.268       .  A
C778        O787   1.275       .  A
C778        C837   1.486       .  S
O779       Ni798   1.936       .  S
O779        C785   1.272       .  A
O780       Ni798   1.902       .  S
O780        C782   1.269       .  A
Ni781       O784   1.926       .  S
Ni781       O786   1.907       .  S
C782        O792   1.273       .  A
C782        C805   1.481       .  S
O783       Ni799   1.911       .  S
O783        C789   1.271       .  A
O784        C789   1.272       .  A
C785        C933   1.483       .  S
O786        C788   1.269       .  A
O787       Ni798   1.938       .  S
C788        O794   1.271       .  A
C788        C818   1.470       .  S
C789        C853   1.488       .  S
H790        O791   0.966       .  S
O791       Ni799   1.912       .  S
O791       Ni793   1.908       .  S
O791       Ni798   1.923       .  S
O792       Ni793   1.933       .  S
Ni793       O797   1.899       .  S
Ni793       O795   1.901       .  S
O794       Ni799   1.926       .  S
C796        O797   1.265       .  A
C796        C949   1.479       .  S
C801        C802   1.403       .  A
C801        C806   1.403       .  A
C801        H808   1.084       .  S
C802        C803   1.416       .  A
C803        C804   1.403       .  A
C803        C810   1.509       .  S
C804        C805   1.404       .  A
C804        H809   1.084       .  S
C805        C806   1.417       .  A
C806        C807   1.509       .  S
C807        H811   1.111       .  S
C807        H812   1.109       .  S
C807        H813   1.111       .  S
C810        H814   1.111       .  S
C810        H815   1.109       .  S
C810        H816   1.111       .  S
C817        C818   1.402       .  A
C817        C822   1.404       .  A
C817        H824   1.084       .  S
C818        C819   1.411       .  A
C819        C820   1.403       .  A
C819        C826   1.507       .  S
C820        C821   1.402       .  A
C820        H825   1.084       .  S
C821        C822   1.413       .  A
C822        C823   1.507       .  S
C823        H827   1.111       .  S
C823        H828   1.111       .  S
C823        H829   1.110       .  S
C826        H830   1.110       .  S
C826        H831   1.111       .  S
C826        H832   1.111       .  S
C833        C834   1.404       .  A
C833        C838   1.403       .  A
C833        H840   1.084       .  S
C834        C835   1.414       .  A
C835        C836   1.406       .  A
C835        C842   1.508       .  S
C836        C837   1.407       .  A
C836        H841   1.084       .  S
C837        C838   1.417       .  A
C838        C839   1.508       .  S
C839        H843   1.111       .  S
C839        H844   1.109       .  S
C839        H845   1.110       .  S
C842        H846   1.110       .  S
C842        H847   1.105       .  S
C842        H848   1.111       .  S
C849        C850   1.403       .  A
C849        C854   1.405       .  A
C849        H856   1.084       .  S
C850        C851   1.417       .  A
C851        C852   1.406       .  A
C851        C858   1.508       .  S
C852        C853   1.405       .  A
C852        H857   1.084       .  S
C853        C854   1.418       .  A
C854        C855   1.508       .  S
C855        H859   1.108       .  S
C855        H860   1.109       .  S
C855        H861   1.110       .  S
C858        H862   1.111       .  S
C858        H863   1.109       .  S
C858        H864   1.111       .  S
C865        C866   1.405       .  A
C865        C870   1.405       .  A
C865        H872   1.084       .  S
C867        C868   1.405       .  A
C867        C874   1.508       .  S
C868        C869   1.403       .  A
C868        H873   1.085       .  S
C870        C871   1.507       .  S
C871        H875   1.111       .  S
C871        H876   1.109       .  S
C871        H877   1.111       .  S
C874        H878   1.111       .  S
C874        H879   1.109       .  S
C874        H880   1.111       .  S
C881        C886   1.406       .  A
C881        H888   1.084       .  S
C882        C883   1.421       .  A
C883        C884   1.405       .  A
C883        C890   1.510       .  S
C884        H889   1.083       .  S
C885        C886   1.422       .  A
C886        C887   1.509       .  S
C887        H891   1.111       .  S
C887        H892   1.110       .  S
C890        H894   1.110       .  S
C890        H895   1.110       .  S
C890        H896   1.111       .  S
C897        C898   1.404       .  A
C897        C902   1.402       .  A
C897        H904   1.084       .  S
C898        C899   1.414   1_565  A
C899        C900   1.402       .  A
C899        C906   1.509       .  S
C900        C901   1.407       .  A
C900        H905   1.084       .  S
C901        C902   1.417   1_545  A
C902        C903   1.509       .  S
C903        H907   1.111       .  S
C903        H908   1.109   1_565  S
C903        H909   1.111       .  S
C906        H910   1.111       .  S
C906        H911   1.109   1_545  S
C906        H912   1.111       .  S
C913        C914   1.403       .  A
C913        C918   1.402       .  A
C913        H920   1.084       .  S
C914        C915   1.418   1_565  A
C915        C916   1.402       .  A
C915        C922   1.507       .  S
C916        C917   1.403       .  A
C916        H921   1.084       .  S
C917        C918   1.417   1_545  A
C918        C919   1.507       .  S
C919        H923   1.111       .  S
C919        H924   1.109       .  S
C919        H925   1.107       .  S
C922        H926   1.109       .  S
C922        H927   1.108       .  S
C922        H928   1.111       .  S
C929        C930   1.403       .  A
C929        C934   1.404       .  A
C929        H936   1.084       .  S
C930        C931   1.415       .  A
C931        C932   1.403       .  A
C931        C938   1.508       .  S
C932        C933   1.405       .  A
C932        H937   1.084       .  S
C933        C934   1.417       .  A
C934        C935   1.508       .  S
C935        H939   1.111       .  S
C935        H940   1.111       .  S
C935        H941   1.109       .  S
C938        H942   1.109       .  S
C938        H943   1.110       .  S
C938        H944   1.111       .  S
C945        C946   1.404       .  A
C945        C950   1.405       .  A
C945        H952   1.084       .  S
C946        C947   1.417       .  A
C947        C948   1.404       .  A
C947        C954   1.508       .  S
C948        C949   1.402       .  A
C948        H953   1.084       .  S
C949        C950   1.415       .  A
C950        C951   1.508       .  S
C951        H955   1.111       .  S
C951        H956   1.111       .  S
C951        H957   1.109       .  S
C954        H958   1.109       .  S
C954        H959   1.111       .  S
C954        H960   1.111       .  S
C961        C962   1.406       .  A
C961        C966   1.407       .  A
C961        H968   1.084       .  S
C963        C964   1.406       .  A
C963        C970   1.508       .  S
C964        H969   1.084       .  S
C965        C966   1.419       .  A
C966        C967   1.508       .  S
C967        H971   1.111       .  S
C967        H972   1.111       .  S
C967        H973   1.109       .  S
C970        H974   1.109       .  S
C970        H975   1.111       .  S
C970        H976   1.111       .  S
C977        C978   1.403       .  A
C977        C982   1.405       .  A
C977        H984   1.084       .  S
C979        C980   1.405       .  A
C979        C986   1.507       .  S
C980        H985   1.084       .  S
C981        C982   1.412       .  A
C982        C983   1.507       .  S
C983        H987   1.111       .  S
C983        H988   1.111       .  S
C983        H989   1.109       .  S
C986        H990   1.109       .  S
C986        H991   1.111       .  S
C986        H992   1.111       .  S
C993        C994   1.408       .  A
C993        C998   1.405       .  A
C993       H1000   1.083       .  S
C994        C995   1.423   1_455  A
C995        C996   1.406       .  A
C995       C1002   1.509       .  S
C996        C997   1.406       .  A
C996       H1001   1.084       .  S
C997        C998   1.421   1_655  A
C998        C999   1.510       .  S
C999       H1003   1.111       .  S
C999       H1004   1.111       .  S
C999       H1005   1.110       .  S
C1002      H1006   1.110       .  S
C1002      H1007   1.110       .  S
C1002      H1008   1.111       .  S
C1009      C1010   1.404   1_655  A
C1009      C1014   1.404       .  A
C1009      H1016   1.084       .  S
C1010      C1011   1.416       .  A
C1011      C1012   1.404       .  A
C1011      C1018   1.509       .  S
C1012      C1013   1.405   1_455  A
C1012      H1017   1.084       .  S
C1013      C1014   1.418       .  A
C1014      C1015   1.509       .  S
C1015      H1019   1.111       .  S
C1015      H1020   1.111       .  S
C1015      H1021   1.109       .  S
C1018      H1022   1.109       .  S
C1018      H1023   1.111       .  S
C1018      H1024   1.111       .  S
C1025      C1026   1.408       .  A
C1025      C1030   1.405       .  A
C1025      H1032   1.083       .  S
C1026      C1027   1.421   1_655  A
C1027      C1028   1.403       .  A
C1027      C1034   1.509       .  S
C1028      C1029   1.407       .  A
C1028      H1033   1.083       .  S
C1029      C1030   1.421   1_455  A
C1030      C1031   1.510       .  S
C1031      H1035   1.111       .  S
C1031      H1036   1.110       .  S
C1031      H1037   1.110       .  S
C1034      H1038   1.110       .  S
C1034      H1039   1.107       .  S
C1034      H1040   1.111       .  S
C1041      C1042   1.403   1_655  A
C1041      C1046   1.403       .  A
C1041      H1048   1.084       .  S
C1042      C1043   1.415       .  A
C1043      C1044   1.403       .  A
C1043      C1050   1.509       .  S
C1044      C1045   1.406   1_455  A
C1044      H1049   1.084       .  S
C1045      C1046   1.419       .  A
C1046      C1047   1.509       .  S
C1047      H1051   1.111       .  S
C1047      H1052   1.111       .  S
C1047      H1053   1.109       .  S
C1050      H1054   1.109       .  S
C1050      H1055   1.111       .  S
C1050      H1056   1.111       .  S
C1057      C1058   1.402       .  A
C1057      C1062   1.401       .  A
C1057      H1064   1.084       .  S
C1058      C1059   1.417   1_565  A
C1059      C1060   1.403       .  A
C1059      C1066   1.509       .  S
C1060      C1061   1.405       .  A
C1060      H1065   1.084       .  S
C1061      C1062   1.420   1_545  A
C1062      C1063   1.507       .  S
C1063      H1067   1.111       .  S
C1063      H1068   1.109       .  S
C1063      H1069   1.106       .  S
C1066      H1070   1.110       .  S
C1066      H1071   1.109       .  S
C1066      H1072   1.111       .  S
C1073      C1074   1.404   1_565  A
C1073      C1078   1.402       .  A
C1073      H1080   1.082       .  S
C1074      C1075   1.420       .  A
C1075      C1076   1.402       .  A
C1075      C1082   1.509       .  S
C1076      C1077   1.404   1_545  A
C1076      H1081   1.084       .  S
C1077      C1078   1.420       .  A
C1078      C1079   1.510       .  S
C1079      H1083   1.111       .  S
C1079      H1084   1.110       .  S
C1079      H1085   1.110       .  S
C1082      H1086   1.110       .  S
C1082      H1087   1.110       .  S
C1082      H1088   1.108       .  S
C1089      C1090   1.406   1_554  A
C1089      C1094   1.402       .  A
C1089      H1096   1.084       .  S
C1091      C1092   1.402       .  A
C1091      C1098   1.509       .  S
C1092      C1093   1.405       .  A
C1092      H1097   1.084       .  S
C1094      C1095   1.511       .  S
C1095      H1099   1.111       .  S
C1095      H1101   1.110   1_554  S
C1098      H1102   1.110       .  S
C1098      H1104   1.111       .  S
C1105      C1106   1.407       .  A
C1105      C1110   1.403       .  A
C1105      H1112   1.084       .  S
C1107      C1108   1.402       .  A
C1107      C1114   1.509       .  S
C1108      C1109   1.405       .  A
C1108      H1113   1.084       .  S
C1110      C1111   1.510       .  S
C1111      H1115   1.111       .  S
C1111      H1116   1.110       .  S
C1111      H1117   1.110       .  S
C1114      H1118   1.108       .  S
C1114      H1119   1.110       .  S
C1114      H1120   1.111       .  S
C1121      C1122   1.404   1_565  A
C1122      C1123   1.418       .  A
C1123      C1124   1.402       .  A
C1123      C1130   1.509       .  S
C1124      H1129   1.083       .  S
C1125      C1126   1.420       .  A
C1126      C1127   1.509       .  S
C1127      H1131   1.111       .  S
C1127      H1133   1.110       .  S
C1130      H1134   1.109       .  S
C1130      H1136   1.111       .  S
C1137      C1142   1.405       .  A
C1137      H1144   1.084       .  S
C1138      C1139   1.419   1_565  A
C1139      C1140   1.403       .  A
C1139      C1146   1.509       .  S
C1140      C1141   1.402       .  A
C1140      H1145   1.084       .  S
C1142      C1143   1.509       .  S
C1143      H1147   1.111       .  S
C1143      H1148   1.110   1_565  S
C1143      H1149   1.108       .  S
C1146      H1150   1.109       .  S
C1146      H1151   1.109   1_545  S
C1146      H1152   1.111       .  S
C1153      C1154   1.405   1_655  A
C1153      C1158   1.404       .  A
C1153      H1160   1.084       .  S
C1154      C1155   1.417   1_545  A
C1155      C1156   1.404       .  A
C1155      C1162   1.509       .  S
C1156      C1157   1.405   1_455  A
C1156      H1161   1.084       .  S
C1157      C1158   1.417   1_565  A
C1158      C1159   1.509       .  S
C1159      H1163   1.111       .  S
C1159      H1164   1.111       .  S
C1159      H1165   1.109   1_545  S
C1162      H1166   1.109   1_565  S
C1162      H1167   1.111       .  S
C1162      H1168   1.111       .  S
C1169      C1170   1.402   1_545  A
C1169      C1174   1.405       .  A
C1169      H1176   1.084       .  S
C1170      C1171   1.414   1_655  A
C1171      C1172   1.405       .  A
C1171      C1178   1.508       .  S
C1172      C1173   1.403   1_565  A
C1172      H1177   1.084       .  S
C1173      C1174   1.415   1_455  A
C1174      C1175   1.509       .  S
C1175      H1179   1.111       .  S
C1175      H1180   1.109       .  S
C1175      H1181   1.111       .  S
C1178      H1182   1.111       .  S
C1178      H1183   1.110       .  S
C1178      H1184   1.111       .  S
