geometry optimzed in LAMMPS
_audit_creation_date              2020-12-01 
_audit_creation_method            'lammps2cif' 
_symmetry_space_group_name_H-M    'P1' 
_symmetry_Int_Tables_number       1 
_symmetry_cell_setting            triclinic 
loop_ 
_symmetry_equiv_pos_as_xyz 
  x,y,z 
_cell_length_a                    45.58400825 
_cell_length_b                    44.62077294796255 
_cell_length_c                    36.9497695995683 
_cell_angle_alpha                 90.55204815838276 
_cell_angle_beta                  90.92286224370648 
_cell_angle_gamma                 91.70075194119887 
loop_ 
_atom_site_label 
_atom_site_type_symbol 
_atom_site_fract_x 
_atom_site_fract_y 
_atom_site_fract_z 
_atom_site_charge 
O1          O  0.01819366  0.03613495  0.34197117    -0.72800
O2          O  0.47470257  0.45783396  0.35247304    -0.73800
O3          O  0.45605525  0.01958721  0.34945965    -0.62400
O4          O  0.03562916  0.47443667  0.35096491    -0.70800
O5          O  0.03605717  0.47949369  0.41047140    -0.70400
O6          O  0.45902433  0.02319313  0.40881936    -0.61600
O7          O  0.47502950  0.46037844  0.41239435    -0.74100
O8          O  0.02164634  0.04116492  0.40125461    -0.72900
Cu9        Cu  0.49734077  0.49583964  0.34790362     1.04600
Cu10       Cu  0.99783766  0.00093712  0.40870475     1.04300
C11         C  0.02727217  0.05127920  0.36939092     0.93400
C12         C  0.46663808  0.44726301  0.38259856     0.92500
C13         C  0.44469794  0.02770168  0.37964457     0.84700
C14         C  0.04763752  0.46918413  0.38200767     0.90900
O15         O  0.03970577  0.47939516  0.15866108    -0.72800
O16         O  0.46251688  0.02466259  0.16454153    -0.73800
O17         O  0.47949198  0.46073686  0.16560344    -0.62400
O18         O  0.02328861  0.04025187  0.15608488    -0.70800
O19         O  0.01887148  0.03677288  0.09670236    -0.70400
O20         O  0.47510822  0.45628309  0.10602236    -0.61600
O21         O  0.45887887  0.02246314  0.10504832    -0.74100
O22         O  0.03550808  0.47631959  0.09927488    -0.72900
Cu23       Cu  0.50138514  0.49992924  0.16279994     1.04600
Cu24       Cu  0.99717122  0.49856389  0.09942788     1.04300
C25         C  0.04947401  0.47000855  0.12843336     0.93400
C26         C  0.44869989  0.03106928  0.13540514     0.92500
C27         C  0.47035742  0.44601024  0.13768864     0.84700
C28         C  0.02826638  0.05120744  0.12490538     0.90900
N29         N  0.17134351  0.30402393  0.00041049    -0.36500
N30         N  0.16567232  0.25486986  0.05511023    -0.57000
N31         N  0.15613594  0.21173920  0.99743575    -0.36500
N32         N  0.15641383  0.26014488  0.44298812    -0.57000
C33         C  0.17770286  0.31955209  0.03140907     0.27100
C34         C  0.17385749  0.32183684  0.47198844     0.27100
C35         C  0.14996247  0.19421434  0.02650903     0.27100
C36         C  0.14551596  0.19624092  0.46937777     0.27100
C37         C  0.17692893  0.27795945  0.07553804     0.35700
C38         C  0.17054736  0.22915069  0.07345382     0.35700
C39         C  0.16966578  0.28264673  0.42409318     0.35700
C40         C  0.15957194  0.23446725  0.42357234     0.35700
C41         C  0.18928324  0.34758746  0.02259091    -0.21800
C42         C  0.18593789  0.34885425  0.48484754    -0.21800
C43         C  0.13537282  0.16819654  0.01436836    -0.21800
C44         C  0.13407244  0.16854543  0.47978360    -0.21800
C45         C  0.19057004  0.26632458  0.10601850    -0.22800
C46         C  0.18568680  0.23571562  0.10528335    -0.22800
C47         C  0.18297350  0.27000510  0.39426428    -0.22800
C48         C  0.17504070  0.24029247  0.39271097    -0.22800
C49         C  0.17342459  0.30904506  0.06745097    -0.18200
C50         C  0.17041599  0.31390125  0.43437313    -0.18200
C51         C  0.14883340  0.20563249  0.43298389    -0.18200
C52         C  0.15879797  0.20044256  0.06322460    -0.18200
H53         H  0.19778186  0.36476329  0.04116497     0.14700
H54         H  0.19468618  0.36725505  0.46906886     0.14700
H55         H  0.12836708  0.14914539  0.03024726     0.14700
H56         H  0.12554261  0.15060148  0.46240857     0.14700
H57         H  0.20392719  0.27801906  0.12622279     0.13000
H58         H  0.19298351  0.22007881  0.12549300     0.13000
H59         H  0.19979146  0.27928727  0.37743694     0.13000
H60         H  0.18216915  0.22439799  0.37271444     0.13000
H61         H  0.16087025  0.28310494  0.99939077     0.26300
H62         H  0.16972213  0.23087759  0.99734819     0.26300
C63         C  0.37226124  0.35574624  0.37210404     0.86600
C64         C  0.37701938  0.32844083  0.39636817    -0.53600
C65         C  0.35194285  0.31244612  0.40409308     0.09500
C66         C  0.32437759  0.32467173  0.38564110     0.20500
C67         C  0.35621272  0.34213998  0.33785576    -0.54400
C68         C  0.33008583  0.32642744  0.34408775     0.09600
C69         C  0.34887893  0.37266035  0.39281017    -0.53900
C70         C  0.32351499  0.35687007  0.39847916     0.10200
H71         H  0.39728726  0.32431209  0.41051983     0.14700
H72         H  0.30523150  0.31264435  0.39591342     0.00500
H73         H  0.36354260  0.34757364  0.31085003     0.15000
H74         H  0.35072767  0.39649021  0.39901295     0.14800
C75         C  0.37962759  0.35703708  0.13753837     0.86600
C76         C  0.35831994  0.34479324  0.16568348    -0.53600
C77         C  0.33015354  0.33749875  0.15350197     0.09500
C78         C  0.32725867  0.34256150  0.11116298     0.20500
C79         C  0.37899395  0.33222777  0.10755161    -0.54400
C80         C  0.35161280  0.32342797  0.09498615     0.09600
C81         C  0.36364008  0.38258121  0.12073586    -0.53900
C82         C  0.33759554  0.37562160  0.10448462     0.10200
H83         H  0.36511476  0.34366518  0.19344944     0.14700
H84         H  0.30624321  0.33781782  0.09742187     0.00500
H85         H  0.39806272  0.32177477  0.09688438     0.15000
H86         H  0.37400709  0.40478817  0.11837156     0.14800
C87         C  0.11953429  0.14106217  0.12287005     0.86600
C88         C  0.13825260  0.14728146  0.15798061    -0.53600
C89         C  0.16721441  0.15590320  0.15247683     0.09500
C90         C  0.17442118  0.15678566  0.11124739     0.20500
C91         C  0.12346835  0.16935475  0.09981979    -0.54400
C92         C  0.15190530  0.17744803  0.09236495     0.09600
C93         C  0.13714811  0.11726499  0.10342135    -0.53900
C94         C  0.16557306  0.12460319  0.09808769     0.10200
H95         H  0.13057957  0.14205217  0.18473703     0.14700
H96         H  0.19747735  0.16353092  0.10553959     0.00500
H97         H  0.10498160  0.18057269  0.08766142     0.15000
H98         H  0.12767794  0.09586388  0.09443134     0.14800
C99         C  0.11033282  0.15047048  0.36629033     0.86600
C100        C  0.11367846  0.17751373  0.39186541    -0.53600
C101        C  0.14170598  0.18363981  0.40300674     0.09500
C102        C  0.16459280  0.16403899  0.38455996     0.20500
C103        C  0.13121253  0.15999035  0.33376661    -0.54400
C104        C  0.16075835  0.16742348  0.34313173     0.09600
C105        C  0.12689986  0.12560701  0.38517759    -0.53900
C106        C  0.15568343  0.13125766  0.39040345     0.10200
H107        H  0.09614114  0.19142857  0.40047854     0.14700
H108        H  0.18530065  0.16886099  0.39798942     0.00500
H109        H  0.12364543  0.15773281  0.30599939     0.15000
H110        H  0.11717274  0.10366498  0.39032917     0.14800
N111        N  0.32713912  0.46625493  0.96008413    -0.36500
N112        N  0.25273446  0.99025006  0.39916222    -0.57000
N113        N  0.24194996  0.02882491  0.96544670    -0.36500
N114        N  0.28501643  0.01455006  0.01742964    -0.57000
C115        C  0.31412056  0.47786739  0.42583213     0.27100
C116        C  0.33011617  0.48750248  0.98619573     0.27100
C117        C  0.21605033  0.02934717  0.43809779     0.27100
C118        C  0.22871641  0.03828865  0.99590394     0.27100
C119        C  0.27610212  0.48427197  0.38214142     0.35700
C120        C  0.24503586  0.01639186  0.38549197     0.35700
C121        C  0.30323368  0.50291283  0.03806008     0.35700
C122        C  0.26830245  0.02898382  0.04087397     0.35700
C123        C  0.31973432  0.50857454  0.43048578    -0.21800
C124        C  0.33189645  0.51560221  0.97062535    -0.21800
C125        C  0.19048952  0.04037227  0.45213116    -0.21800
C126        C  0.20048738  0.04705171  0.98735223    -0.21800
C127        C  0.28319702  0.50487749  0.35574211    -0.22800
C128        C  0.26223852  0.02458969  0.35640514    -0.22800
C129        C  0.29968696  0.50964261  0.07433260    -0.22800
C130        C  0.27837631  0.02428936  0.07595151    -0.22800
C131        C  0.29540690  0.46528895  0.39805509    -0.18200
C132        C  0.32238335  0.48253824  0.02258178    -0.18200
C133        C  0.24246372  0.04317805  0.03025746    -0.18200
C134        C  0.22481759  0.03387811  0.40221878    -0.18200
H135        H  0.31541995  0.52628182  0.41152777     0.14700
H136        H  0.33287818  0.53709488  0.98451202     0.14700
H137        H  0.17168300  0.04821168  0.43711291     0.14700
H138        H  0.18464910  0.05649752  0.00538982     0.14700
H139        H  0.30251929  0.50549590  0.33915824     0.13000
H140        H  0.26161825  0.04509133  0.34105214     0.13000
H141        H  0.31299101  0.50231391  0.09690194     0.12200
H142        H  0.26882815  0.03217042  0.10078357     0.13000
H143        H  0.32602953  0.44333113  0.96492880     0.26300
H144        H  0.26412304  0.02489480  0.96200783     0.26300
N145        N  0.33632729  0.19423924  0.00416552    -0.36500
N146        N  0.34085673  0.23668160  0.44661976    -0.57000
N147        N  0.34576244  0.28690710  0.00180411    -0.36500
N148        N  0.34349973  0.24321664  0.06025502    -0.57000
C149        C  0.32914082  0.17452689  0.47497175     0.27100
C150        C  0.33158655  0.17817730  0.03469510     0.27100
C151        C  0.35779576  0.29918788  0.47014116     0.27100
C152        C  0.35407003  0.30427626  0.03074411     0.27100
C153        C  0.32761104  0.21330097  0.42853865     0.35700
C154        C  0.33711091  0.26134429  0.42615863     0.35700
C155        C  0.33090387  0.22033960  0.07906107     0.35700
C156        C  0.33716056  0.26921666  0.07774420     0.35700
C157        C  0.31674413  0.14802076  0.48762065    -0.21800
C158        C  0.32133454  0.14975965  0.02460361    -0.21800
C159        C  0.37250041  0.32582773  0.48025512    -0.21800
C160        C  0.36713778  0.33057715  0.01882980    -0.21800
C161        C  0.31344308  0.22387441  0.39806290    -0.22800
C162        C  0.32101824  0.25357928  0.39524191    -0.22800
C163        C  0.31488671  0.23233575  0.10705080    -0.22800
C164        C  0.32007775  0.26291820  0.10734839    -0.22800
C165        C  0.33073043  0.18255793  0.43769223    -0.18200
C166        C  0.33402086  0.18899706  0.07134278    -0.18200
C167        C  0.34705378  0.29837151  0.06719253    -0.18200
C168        C  0.34984873  0.29007995  0.43407760    -0.18200
H169        H  0.30596212  0.13020010  0.47199352     0.14700
H170        H  0.31368171  0.13209387  0.04213393     0.14700
H171        H  0.38138263  0.34331803  0.46335462     0.14700
H172        H  0.37573648  0.34904304  0.03510243     0.14700
H173        H  0.29977466  0.21159338  0.37869171     0.13000
H174        H  0.31529848  0.26726584  0.37248707     0.13000
H175        H  0.29954768  0.22062204  0.12433811     0.13000
H176        H  0.31118882  0.27869322  0.12624249     0.13000
H177        H  0.34544366  0.21578150  0.00361504     0.26300
H178        H  0.33245004  0.26758874  0.00263506     0.26300
N179        N  0.29881641  0.33026395  0.24784325    -0.36500
N180        N  0.25657453  0.34046182  0.30527687    -0.57000
N181        N  0.21210153  0.35249639  0.25016986    -0.36500
N182        N  0.25401044  0.34218695  0.19223855    -0.57000
C183        C  0.31427006  0.32023394  0.27699813     0.27100
C184        C  0.31338379  0.32256150  0.21744525     0.27100
C185        C  0.19766576  0.36115791  0.28030959     0.27100
C186        C  0.19494833  0.35833647  0.22083416     0.27100
C187        C  0.27605386  0.32319583  0.32278510     0.35700
C188        C  0.23256447  0.34149541  0.32624942     0.35700
C189        C  0.27553712  0.33237639  0.17047168     0.35700
C190        C  0.22869192  0.34121946  0.17233071     0.35700
C191        C  0.33828109  0.30522852  0.26507068    -0.21800
C192        C  0.33739555  0.30593436  0.22775691    -0.21800
C193        C  0.17083885  0.37228157  0.26967971    -0.21800
C194        C  0.16908490  0.37047807  0.23256583    -0.21800
C195        C  0.26320160  0.31163664  0.35340837    -0.22800
C196        C  0.23717486  0.32545119  0.35742935    -0.22800
C197        C  0.26327604  0.32362364  0.13743196    -0.22800
C198        C  0.23429376  0.33065702  0.13796897    -0.22800
C199        C  0.30626317  0.32201525  0.31409290    -0.18200
C200        C  0.30565703  0.33013790  0.18074524    -0.18200
C201        C  0.20076208  0.35043726  0.18418143    -0.18200
C202        C  0.20608276  0.35546200  0.31700822    -0.18200
H203        H  0.35377551  0.29364732  0.28181182     0.14700
H204        H  0.35257431  0.29497325  0.21020752     0.14700
H205        H  0.15294200  0.37832662  0.28672917     0.14700
H206        H  0.15000942  0.37594866  0.21653587     0.14700
H207        H  0.27025875  0.29334175  0.36985766     0.13000
H208        H  0.22310048  0.32287729  0.38034137     0.13000
H209        H  0.27280753  0.31076895  0.11608999     0.13000
H210        H  0.21914027  0.32740142  0.11558016     0.13000
H211        H  0.28124565  0.34449140  0.24878682     0.26300
H212        H  0.23079305  0.33987688  0.24964623     0.26300
C213        C  0.14432450  0.38446628  0.37775717     0.86600
C214        C  0.15450739  0.36652417  0.41212201    -0.53600
C215        C  0.16682705  0.33876618  0.40540069     0.09500
C216        C  0.16795997  0.33303812  0.36391591     0.20500
C217        C  0.17252781  0.38653781  0.35502126    -0.54400
C218        C  0.18390118  0.35961737  0.34631391     0.09600
C219        C  0.12414946  0.36128432  0.35764052    -0.53900
C220        C  0.13649960  0.33443420  0.35116973     0.10200
H221        H  0.14963169  0.37407707  0.43921186     0.14700
H222        H  0.17702388  0.31244400  0.35436746     0.00500
H223        H  0.18338441  0.40659665  0.34579811     0.15000
H224        H  0.10079162  0.36443287  0.35338904     0.14800
C225        C  0.13715705  0.37549781  0.12085316     0.86600
C226        C  0.16392934  0.37851133  0.14697396    -0.53600
C227        C  0.17610363  0.35211049  0.15663492     0.09500
C228        C  0.16123334  0.32450140  0.13773770     0.20500
C229        C  0.14950912  0.35783134  0.08810793    -0.54400
C230        C  0.16296201  0.33108657  0.09647308     0.09600
C231        C  0.11641770  0.35214804  0.13789678    -0.53900
C232        C  0.12849609  0.32579429  0.14656894     0.10200
H233        H  0.17201930  0.39992070  0.15796049     0.14700
H234        H  0.17004943  0.30355033  0.14778929     0.00500
H235        H  0.14658773  0.36430950  0.06059124     0.15000
H236        H  0.09353602  0.35640723  0.14340898     0.14800
C237        C  0.35942702  0.12117827  0.13156106     0.86600
C238        C  0.33206380  0.12181764  0.15584279    -0.53600
C239        C  0.32156506  0.14972674  0.16230294     0.09500
C240        C  0.33932832  0.17471477  0.14344764     0.20500
C241        C  0.35068768  0.13827507  0.09679764    -0.54400
C242        C  0.33914831  0.16656069  0.10224709     0.09600
C243        C  0.38169040  0.14360211  0.14851134    -0.53900
C244        C  0.37123811  0.17085054  0.15585326     0.10200
H245        H  0.32262650  0.10185401  0.16822089     0.14700
H246        H  0.33218862  0.19687687  0.15183720     0.00500
H247        H  0.35785409  0.13098239  0.07065494     0.15000
H248        H  0.40447476  0.13838598  0.15410744     0.14800
C249        C  0.35125236  0.11131996  0.37754487     0.86600
C250        C  0.34233698  0.12892674  0.41256916    -0.53600
C251        C  0.33599665  0.15913353  0.40746603     0.09500
C252        C  0.34061914  0.16783983  0.36706528     0.20500
C253        C  0.32545308  0.11693591  0.35104228    -0.54400
C254        C  0.31943654  0.14632455  0.34537850     0.09600
C255        C  0.37720620  0.13010329  0.36497047    -0.53900
C256        C  0.37260202  0.15913496  0.35932501     0.10200
H257        H  0.34329969  0.11883944  0.43885324     0.14700
H258        H  0.33833916  0.19111618  0.35869439     0.00500
H259        H  0.31234834  0.09926391  0.33809746     0.15000
H260        H  0.39906815  0.12152062  0.36686393     0.14800
N261        N  0.03328924  0.23555472  0.27929251    -0.36500
N262        N  0.00116882  0.24069470  0.35138294    -0.57000
N263        N  0.45235905  0.27915353  0.28203881    -0.36500
N264        N  0.99229283  0.25401878  0.22447579    -0.57000
C265        C  0.04915575  0.22352997  0.30646903     0.27100
C266        C  0.04727052  0.23019698  0.24821125     0.27100
C267        C  0.43731216  0.27233122  0.31227732     0.27100
C268        C  0.43365720  0.27407522  0.25367997     0.27100
C269        C  0.02788860  0.25441728  0.35125784     0.35700
C270        C  0.48047665  0.26392954  0.35030267     0.35700
C271        C  0.01725599  0.25927041  0.20646895     0.35700
C272        C  0.47188130  0.26891711  0.20905165     0.35700
C273        C  0.06973714  0.20498154  0.29161839    -0.21800
C274        C  0.06977336  0.21073616  0.25481300    -0.21800
C275        C  0.40784095  0.26748352  0.30330397    -0.21800
C276        C  0.40561835  0.26837666  0.26622277    -0.21800
C277        C  0.02514142  0.28536938  0.34950488    -0.22800
C278        C  0.49489914  0.29154581  0.35084646    -0.22800
C279        C  0.01212944  0.27744992  0.17683588    -0.22800
C280        C  0.48316982  0.28157834  0.17810996    -0.22800
C281        C  0.05302337  0.23966724  0.33961531    -0.18200
C282        C  0.04470487  0.24915836  0.21808175    -0.18200
C283        C  0.44243328  0.26730518  0.21804910    -0.18200
C284        C  0.45079406  0.25873845  0.34231160    -0.18200
H285        H  0.08711575  0.19435165  0.30636350     0.14700
H286        H  0.08661683  0.20445489  0.23619325     0.14700
H287        H  0.39070734  0.25939959  0.32101954     0.14700
H288        H  0.38647287  0.26145457  0.25020128     0.14700
H289        H  0.04240566  0.30210312  0.34541402     0.13000
H290        H  0.48528586  0.31321292  0.34719321     0.13000
H291        H  0.02784335  0.28540682  0.15722001     0.13000
H292        H  0.47169270  0.29413305  0.15771307     0.13000
H293        H  0.01874713  0.25292114  0.28262724     0.26300
H294        H  0.47512397  0.28153741  0.28059667     0.26300
N295        N  0.19650987  0.16200359  0.25017384    -0.36500
N296        N  0.24102039  0.15941047  0.30766018    -0.57000
N297        N  0.28732356  0.15607237  0.25319460    -0.36500
N298        N  0.24400405  0.16158118  0.19472946    -0.57000
C299        C  0.18080529  0.17305042  0.27817290     0.27100
C300        C  0.18245901  0.16889876  0.21861286     0.27100
C301        C  0.30380747  0.16165231  0.28332002     0.27100
C302        C  0.30411504  0.16359748  0.22455355     0.27100
C303        C  0.21789451  0.16779540  0.32833188     0.35700
C304        C  0.26542177  0.15793098  0.32976394     0.35700
C305        C  0.21982843  0.15018331  0.17700146     0.35700
C306        C  0.26758174  0.14989935  0.17794477     0.35700
C307        C  0.15722152  0.18828602  0.26384624    -0.21800
C308        C  0.15809720  0.18544666  0.22657853    -0.21800
C309        C  0.33093535  0.17366589  0.27394750    -0.21800
C310        C  0.33079007  0.17546748  0.23683188    -0.21800
C311        C  0.22953819  0.17515650  0.36240915    -0.22800
C312        C  0.25816610  0.16642462  0.36414660    -0.22800
C313        C  0.22856092  0.13044606  0.15068706    -0.22800
C314        C  0.25856514  0.13107839  0.15000453    -0.22800
C315        C  0.18721041  0.16988137  0.31618118    -0.18200
C316        C  0.19033583  0.15862239  0.18332096    -0.18200
C317        C  0.29712691  0.15562373  0.18835292    -0.18200
C318        C  0.29532165  0.15522527  0.31888017    -0.18200
H319        H  0.14136776  0.20095345  0.27862318     0.14700
H320        H  0.14272047  0.19490471  0.20755135     0.14700
H321        H  0.34872043  0.18100694  0.29191555     0.14700
H322        H  0.34821499  0.18467426  0.22082056     0.14700
H323        H  0.22118781  0.19048007  0.38205011     0.13000
H324        H  0.27299394  0.17004583  0.38694858     0.13000
H325        H  0.21490504  0.11510079  0.13594962     0.13000
H326        H  0.27200685  0.11755067  0.13279393     0.13000
H327        H  0.21404636  0.14765444  0.25223465     0.26300
H328        H  0.26740762  0.14398037  0.25218628     0.26300
C329        C  0.39794042  0.20465518  0.38468066    -0.05700
C330        C  0.39802719  0.18098937  0.35931978     0.00300
C331        C  0.42276020  0.17881987  0.33624162    -0.08300
C332        C  0.44006378  0.20489645  0.33119044    -0.05700
C333        C  0.43725133  0.22995851  0.35369309     0.00300
C334        C  0.41889950  0.22817576  0.38372320    -0.08200
C335        C  0.42255329  0.25043464  0.41458066     0.62200
H336        H  0.38204535  0.20418476  0.40589709     0.12900
H337        H  0.45642840  0.20586372  0.31025577     0.12900
C338        C  0.43389228  0.14952230  0.32078911     0.62400
F339        F  0.41878989  0.27892598  0.40192435    -0.22800
F340        F  0.45058500  0.24871749  0.42913835    -0.20100
F341        F  0.40277093  0.24487372  0.44185427    -0.19800
F342        F  0.41177547  0.13247584  0.30399814    -0.19800
F343        F  0.44621402  0.13328615  0.34854907    -0.20100
F344        F  0.45568515  0.15462174  0.29570817    -0.22800
C345        C  0.39052155  0.22266795  0.15478525    -0.05700
C346        C  0.39009024  0.19492465  0.17190789     0.00300
C347        C  0.40807444  0.19084814  0.20294173    -0.08300
C348        C  0.42674629  0.21450461  0.21458577    -0.05700
C349        C  0.42546403  0.24296973  0.19915285     0.00300
C350        C  0.40720045  0.24710971  0.16869531    -0.08200
C351        C  0.40346075  0.27641257  0.15017549     0.62200
H352        H  0.37714260  0.22556523  0.13066398     0.12900
H353        H  0.44083328  0.21148218  0.23817220     0.12900
C354        C  0.40662041  0.16403949  0.22764325     0.62400
F355        F  0.37391106  0.28210625  0.14973885    -0.22800
F356        F  0.41325567  0.27367866  0.11509356    -0.20100
F357        F  0.41821217  0.30026427  0.16707941    -0.19800
F358        F  0.43304012  0.14961747  0.22693350    -0.19800
F359        F  0.38428745  0.14342502  0.21980142    -0.20100
F360        F  0.40174015  0.17479629  0.26201354    -0.22800
C361        C  0.08214784  0.25609433  0.17123393    -0.05700
C362        C  0.07099312  0.26551954  0.20429493     0.00300
C363        C  0.07967619  0.29426313  0.21849455    -0.08300
C364        C  0.10134935  0.31110478  0.20048848    -0.05700
C365        C  0.11113982  0.30260170  0.16625103     0.00300
C366        C  0.09974807  0.27543473  0.15034997    -0.08200
C367        C  0.10144991  0.26723254  0.11067915     0.62200
H368        H  0.07363842  0.23518900  0.15937618     0.12900
H369        H  0.10866598  0.33277664  0.21124813     0.12900
C370        C  0.06414050  0.30872256  0.25011756     0.62400
F371        F  0.07328023  0.26407868  0.09634505    -0.22800
F372        F  0.11509091  0.24020838  0.10721175    -0.20100
F373        F  0.11603820  0.28849273  0.09059552    -0.19800
F374        F  0.06432017  0.29020508  0.27947695    -0.19800
F375        F  0.03537853  0.31415879  0.24065289    -0.20100
F376        F  0.07734968  0.33580992  0.26068896    -0.22800
C377        C  0.10330599  0.29838411  0.38042842    -0.05700
C378        C  0.11903825  0.30636149  0.34956327     0.00300
C379        C  0.12111603  0.28574625  0.32074265    -0.08300
C380        C  0.10322641  0.25980846  0.32144935    -0.05700
C381        C  0.08246297  0.25467950  0.34901942     0.00300
C382        C  0.08614664  0.27195091  0.38138738    -0.08200
C383        C  0.07103256  0.26467844  0.41658881     0.62200
H384        H  0.10439873  0.31301760  0.40406155     0.12900
H385        H  0.10360136  0.24604468  0.29779729     0.12900
C386        C  0.13995566  0.29214090  0.28782212     0.62400
F387        F  0.09164203  0.26477819  0.44446076    -0.22800
F388        F  0.05710197  0.23682241  0.41560462    -0.20100
F389        F  0.05066506  0.28617371  0.42404148    -0.19800
F390        F  0.16937448  0.29175819  0.29705255    -0.19800
F391        F  0.13354485  0.31988482  0.27426595    -0.20100
F392        F  0.13504275  0.27119328  0.26031899    -0.22800
C393        C  0.20448173  0.11115699  0.40148037    -0.05700
C394        C  0.17692228  0.10729043  0.38421246     0.00300
C395        C  0.17194459  0.08186609  0.36024913    -0.08300
C396        C  0.19101185  0.05830714  0.36314628    -0.05700
C397        C  0.21577982  0.06105916  0.38493942     0.00300
C398        C  0.22507744  0.08886366  0.39962959    -0.08200
C399        C  0.25663285  0.09450331  0.41205265     0.62200
H400        H  0.20980520  0.13119275  0.41714592     0.12900
H401        H  0.18543121  0.03664802  0.35086786     0.12900
C402        C  0.14764921  0.07772251  0.33175939     0.62400
F403        F  0.27447196  0.09079298  0.38280960    -0.22800
F404        F  0.26480236  0.07456139  0.43827234    -0.20100
F405        F  0.26138428  0.12326643  0.42555718    -0.19800
F406        F  0.15499335  0.05680295  0.30568876    -0.19800
F407        F  0.14332506  0.10394178  0.31359872    -0.20100
F408        F  0.12204391  0.06736462  0.34732215    -0.22800
C409        C  0.20630898  0.11345589  0.05868964    -0.05700
C410        C  0.18593068  0.10250074  0.08317093     0.00300
C411        C  0.18841746  0.07253308  0.09630644    -0.08300
C412        C  0.20889441  0.05381361  0.08021162    -0.05700
C413        C  0.22857573  0.06485408  0.05470298     0.00300
C414        C  0.22863231  0.09568742  0.04603400    -0.08200
C415        C  0.25115770  0.11110962  0.02294586     0.62200
H416        H  0.20532780  0.13657588  0.05000629     0.12900
H417        H  0.20906132  0.03017360  0.08666005     0.12900
C418        C  0.17128598  0.06013229  0.12812875     0.62400
F419        F  0.26116377  0.13695254  0.04067365    -0.22800
F420        F  0.23786262  0.11903915  0.99082257    -0.20100
F421        F  0.27491803  0.09346624  0.01619277    -0.19800
F422        F  0.14384404  0.04972495  0.11656125    -0.19800
F423        F  0.16848733  0.08173883  0.15481863    -0.20100
F424        F  0.18557614  0.03640434  0.14378734    -0.22800
C425        C  0.30009803  0.43887315  0.05590041    -0.05700
C426        C  0.32484125  0.45226776  0.03906925     0.00300
C427        C  0.35133365  0.43669048  0.03859943    -0.08300
C428        C  0.35163201  0.40804382  0.05358255    -0.05700
C429        C  0.32857718  0.39665958  0.07518476     0.00300
C430        C  0.30194949  0.41199275  0.07552455    -0.08200
C431        C  0.27602096  0.40055643  0.09705999     0.62200
H432        H  0.27950845  0.45031844  0.05496022     0.12900
H433        H  0.37195012  0.39620670  0.05311282     0.12900
C434        C  0.38014567  0.45108416  0.02610285     0.62400
F435        F  0.25272522  0.41973777  0.09524024    -0.22800
F436        F  0.28407016  0.39767242  0.13308439    -0.20100
F437        F  0.26652179  0.37304174  0.08322632    -0.19800
F438        F  0.38297764  0.48034967  0.03869383    -0.19800
F439        F  0.38125901  0.45075119  0.98878891    -0.20100
F440        F  0.40415149  0.43599334  0.03923327    -0.22800
C441        C  0.29016750  0.38703059  0.36480271    -0.05700
C442        C  0.29640605  0.37360902  0.39795668     0.00300
C443        C  0.28651794  0.38694214  0.42989677    -0.08300
C444        C  0.27936288  0.41728417  0.42843707    -0.05700
C445        C  0.28532527  0.43339785  0.39666520     0.00300
C446        C  0.28457915  0.41738532  0.36339762    -0.08200
C447        C  0.28055430  0.43190813  0.32669072     0.62200
H448        H  0.29659903  0.37626296  0.34018988     0.12900
H449        H  0.27344289  0.42914444  0.45283789     0.12900
C450        C  0.28693368  0.37010611  0.46519186     0.62400
F451        F  0.27889459  0.41083525  0.29889850    -0.22800
F452        F  0.30386771  0.45136389  0.31991045    -0.20100
F453        F  0.25458351  0.44715507  0.32590871    -0.19800
F454        F  0.31558310  0.36627930  0.47666984    -0.19800
F455        F  0.27323012  0.34225555  0.46017101    -0.20100
F456        F  0.27232660  0.38530932  0.49192909    -0.22800
C457        C  0.08640173  0.44173273  0.09244656    -0.05700
C458        C  0.07616777  0.45055431  0.12670190     0.00300
C459        C  0.09094316  0.43937840  0.15770799    -0.08300
C460        C  0.11162838  0.41685076  0.15306868    -0.05700
C461        C  0.11990076  0.40540410  0.11890598     0.00300
C462        C  0.10874813  0.42048082  0.08781126    -0.08200
C463        C  0.11969364  0.41537464  0.04983001     0.62200
H464        H  0.07623740  0.45129933  0.06872279     0.12900
H465        H  0.12048477  0.40649218  0.17702500     0.12900
C466        C  0.08498248  0.45027512  0.19597968     0.62400
F467        F  0.11121737  0.43785674  0.02664148    -0.22800
F468        F  0.10813662  0.38855534  0.03606898    -0.20100
F469        F  0.15005478  0.41570131  0.05011610    -0.19800
F470        F  0.05689591  0.44151526  0.20582926    -0.19800
F471        F  0.08824201  0.48118693  0.19776055    -0.20100
F472        F  0.10433597  0.43872691  0.22116450    -0.22800
C473        C  0.05270051  0.09617802  0.15498096    -0.05700
C474        C  0.04548398  0.08045145  0.12245080     0.00300
C475        C  0.05485437  0.09352425  0.08937919    -0.08300
C476        C  0.07513390  0.11802711  0.09098974    -0.05700
C477        C  0.08735311  0.12895823  0.12410101     0.00300
C478        C  0.07196906  0.12151837  0.15584590    -0.08200
C479        C  0.07186451  0.14165974  0.18898974     0.62200
H480        H  0.04277484  0.08908816  0.18006887     0.12900
H481        H  0.08481783  0.12606704  0.06620720     0.12900
C482        C  0.04507156  0.08130272  0.05243223     0.62400
F483        F  0.04315226  0.14718006  0.19804078    -0.22800
F484        F  0.08557514  0.16911168  0.18263126    -0.20100
F485        F  0.08536333  0.12782467  0.21786189    -0.19800
F486        F  0.01474528  0.08034782  0.04988392    -0.19800
F487        F  0.05568430  0.05287714  0.04732770    -0.20100
F488        F  0.05534584  0.09908842  0.02456283    -0.22800
C489        C  0.40570682  0.05351555  0.10339744    -0.05700
C490        C  0.42126411  0.04918108  0.13624311     0.00300
C491        C  0.41033325  0.06277394  0.16821122    -0.08300
C492        C  0.38607953  0.08148602  0.16508929    -0.05700
C493        C  0.37422003  0.09017779  0.13135148     0.00300
C494        C  0.38164720  0.07276845  0.10064725    -0.08200
C495        C  0.36349178  0.07116370  0.06601277     0.62200
H496        H  0.41233144  0.04162386  0.07930177     0.12900
H497        H  0.37830630  0.09262140  0.18904557     0.12900
C498        C  0.42484242  0.05965666  0.20539618     0.62400
F499        F  0.36101935  0.04174722  0.05380752    -0.22800
F500        F  0.37710102  0.08810785  0.03965856    -0.20100
F501        F  0.33531148  0.08076654  0.07133244    -0.19800
F502        F  0.45352219  0.07066680  0.20462804    -0.19800
F503        F  0.42426509  0.02988036  0.21550496    -0.20100
F504        F  0.41075343  0.07566162  0.23191898    -0.22800
C505        C  0.43232792  0.41848570  0.17132812    -0.05700
C506        C  0.45236782  0.41814868  0.14311245     0.00300
C507        C  0.45461534  0.39172345  0.12213782    -0.08300
C508        C  0.43375114  0.36815114  0.12700556    -0.05700
C509        C  0.40969690  0.37079838  0.15058910     0.00300
C510        C  0.41117714  0.39535078  0.17615091    -0.08200
C511        C  0.39023387  0.39873306  0.20768728     0.62200
H512        H  0.43227641  0.43825364  0.18853581     0.12900
H513        H  0.43497456  0.34894055  0.10944077     0.12900
C514        C  0.47857515  0.38851482  0.09437698     0.62400
F515        F  0.39274948  0.37464731  0.23064308    -0.22800
F516        F  0.36157261  0.40096030  0.19552892    -0.20100
F517        F  0.39671904  0.42427174  0.22822198    -0.19800
F518        F  0.50564564  0.39560859  0.11020132    -0.19800
F519        F  0.47366642  0.40748268  0.06569389    -0.20100
F520        F  0.47946406  0.35955044  0.08072378    -0.22800
C521        C  0.07642126  0.11549463  0.33017355    -0.05700
C522        C  0.07888413  0.13601704  0.35945596     0.00300
C523        C  0.05872680  0.13059113  0.38856990    -0.08300
C524        C  0.04309194  0.10276898  0.39073155    -0.05700
C525        C  0.04394931  0.08077289  0.36365844     0.00300
C526        C  0.05969159  0.08812831  0.33157897    -0.08200
C527        C  0.06061976  0.06665637  0.29939694     0.62200
H528        H  0.09007453  0.11960006  0.30709119     0.12900
H529        H  0.02961949  0.09804762  0.41398677     0.12900
C530        C  0.05116843  0.15443969  0.41614490     0.62400
F531        F  0.07981474  0.07669498  0.27318046    -0.22800
F532        F  0.03302851  0.06371947  0.28340949    -0.20100
F533        F  0.06983662  0.03892293  0.31061491    -0.19800
F534        F  0.04603358  0.18091345  0.39842432    -0.19800
F535        F  0.07335634  0.15822603  0.44174626    -0.20100
F536        F  0.02575989  0.14698803  0.43452374    -0.22800
C537        C  0.09644411  0.45440348  0.35900045    -0.05700
C538        C  0.07498707  0.45096190  0.38526535     0.00300
C539        C  0.08038786  0.43050858  0.41377906    -0.08300
C540        C  0.10425423  0.41102417  0.41122700    -0.05700
C541        C  0.12574349  0.41330141  0.38407647     0.00300
C542        C  0.12260107  0.43790431  0.35917677    -0.08200
C543        C  0.14662913  0.44938627  0.33436060     0.62200
H544        H  0.09280038  0.47117049  0.33855226     0.12900
H545        H  0.10547856  0.39288234  0.43022703     0.12900
C546        C  0.06096359  0.42859125  0.44671149     0.62400
F547        F  0.13969373  0.47618566  0.31810724    -0.22800
F548        F  0.15098709  0.42914454  0.30677351    -0.20100
F549        F  0.17214077  0.45509139  0.35435431    -0.19800
F550        F  0.06860355  0.40560216  0.46960304    -0.19800
F551        F  0.03219361  0.42358593  0.43600733    -0.20100
F552        F  0.06344063  0.45517777  0.46620693    -0.22800
C553        C  0.42727788  0.36991861  0.37878419    -0.05700
C554        C  0.39900648  0.37754660  0.36596541     0.00300
C555        C  0.39561678  0.40798364  0.35467339    -0.08300
C556        C  0.41768816  0.42954508  0.36359712    -0.05700
C557        C  0.44413680  0.42236761  0.38054729     0.00300
C558        C  0.44976972  0.39179557  0.38641325    -0.08200
C559        C  0.47913924  0.38242762  0.40126520     0.62200
H560        H  0.43191442  0.34672984  0.38344516     0.12900
H561        H  0.41440862  0.45275876  0.35633945     0.12900
C562        C  0.36956170  0.42042259  0.33404946     0.62400
F563        F  0.48271054  0.39361146  0.43607866    -0.22800
F564        F  0.50140256  0.39356236  0.37972264    -0.20100
F565        F  0.48122772  0.35156390  0.40249556    -0.19800
F566        F  0.35621277  0.44136950  0.35561235    -0.19800
F567        F  0.34877584  0.39924743  0.32300825    -0.20100
F568        F  0.37958542  0.43462339  0.30328800    -0.22800
C569        C  0.40018777  0.04802058  0.34835649    -0.05700
C570        C  0.41503624  0.04258852  0.38105505     0.00300
C571        C  0.40079647  0.05118288  0.41371563    -0.08300
C572        C  0.37556884  0.06910114  0.41174038    -0.05700
C573        C  0.36359890  0.07896849  0.37868366     0.00300
C574        C  0.37441368  0.06499697  0.34636031    -0.08200
C575        C  0.35992366  0.06838053  0.30916737     0.62200
H576        H  0.40962775  0.03957909  0.32374348     0.12900
H577        H  0.36676362  0.07761914  0.43653165     0.12900
C578        C  0.41220604  0.04254362  0.45098656     0.62400
F579        F  0.37343526  0.05164055  0.28286486    -0.22800
F580        F  0.36117219  0.09786289  0.29809914    -0.20100
F581        F  0.33110204  0.05801602  0.31022261    -0.19800
F582        F  0.43902852  0.05687078  0.45811085    -0.19800
F583        F  0.41501120  0.01178808  0.45256043    -0.20100
F584        F  0.39338447  0.05060728  0.47818927    -0.22800
O585        O  0.01945406  0.03591815  0.84120307    -0.72800
O586        O  0.47489850  0.45939635  0.84921903    -0.73800
O587        O  0.45770003  0.02020046  0.85023416    -0.62400
O588        O  0.03641247  0.47319761  0.84944979    -0.70800
O589        O  0.03806456  0.48003230  0.90873571    -0.70400
O590        O  0.46134060  0.02377915  0.90960663    -0.61600
O591        O  0.47591300  0.46155424  0.90915153    -0.74100
O592        O  0.02298100  0.04300598  0.90024436    -0.72900
Cu593      Cu  0.49760905  0.49749147  0.84505106     1.04600
Cu594      Cu  0.99961883  0.00290554  0.90980299     1.04300
C595        C  0.02890329  0.05181207  0.86793263     0.93400
C596        C  0.46705757  0.44869255  0.87940282     0.92500
C597        C  0.44678577  0.02839515  0.88065191     0.84700
C598        C  0.04856698  0.46819392  0.88047211     0.90900
O599        O  0.03826500  0.48034197  0.65580144    -0.72800
O600        O  0.46337838  0.02337350  0.66179707    -0.73800
O601        O  0.47924818  0.46322842  0.66672643    -0.62400
O602        O  0.02434413  0.04105446  0.65878462    -0.70800
O603        O  0.02152508  0.03918022  0.59916841    -0.70400
O604        O  0.47600942  0.45906950  0.60698525    -0.61600
O605        O  0.45945998  0.02051806  0.60236296    -0.74100
O606        O  0.03468718  0.47704079  0.59638399    -0.72900
Cu607      Cu  0.50159856  0.50236971  0.66462265     1.04600
Cu608      Cu  0.99682738  0.49979862  0.59555696     1.04300
C609        C  0.04833433  0.47086231  0.62578313     0.93400
C610        C  0.44946384  0.02955860  0.63259333     0.92500
C611        C  0.47032280  0.44884599  0.63843523     0.84700
C612        C  0.02989935  0.05294494  0.62827103     0.90900
N613        N  0.16819988  0.30378512  0.50086868    -0.36500
N614        N  0.16548474  0.25517942  0.55608491    -0.57000
N615        N  0.15595250  0.21130353  0.49911442    -0.36500
N616        N  0.15854738  0.26118463  0.94191869    -0.57000
C617        C  0.17522994  0.31951604  0.53160282     0.27100
C618        C  0.17725323  0.32234107  0.97193016     0.27100
C619        C  0.15044935  0.19394305  0.52845778     0.27100
C620        C  0.14508332  0.19754818  0.96734167     0.27100
C621        C  0.17581812  0.27857441  0.57661965     0.35700
C622        C  0.17047952  0.22973489  0.57483486     0.35700
C623        C  0.17262738  0.28355118  0.92365809     0.35700
C624        C  0.16128325  0.23556752  0.92224719     0.35700
C625        C  0.18681953  0.34738121  0.52214139    -0.21800
C626        C  0.18905278  0.34932249  0.98530479    -0.21800
C627        C  0.13697804  0.16717168  0.51691179    -0.21800
C628        C  0.13224365  0.17032946  0.97726935    -0.21800
C629        C  0.18920115  0.26741477  0.60757882    -0.22800
C630        C  0.18496149  0.23674311  0.60699631    -0.22800
C631        C  0.18590711  0.27089378  0.89382286    -0.22800
C632        C  0.17729695  0.24134703  0.89175571    -0.22800
C633        C  0.17169392  0.30943068  0.56802955    -0.18200
C634        C  0.17377836  0.31473949  0.93430244    -0.18200
C635        C  0.14936940  0.20696681  0.93103033    -0.18200
C636        C  0.15896822  0.20092885  0.56494225    -0.18200
H637        H  0.19579829  0.36461655  0.54031030     0.14700
H638        H  0.19783473  0.36793739  0.96990783     0.14700
H639        H  0.13068990  0.14812299  0.53321958     0.14700
H640        H  0.12245063  0.15321558  0.95958715     0.14700
H641        H  0.20209338  0.27940951  0.62796551     0.13000
H642        H  0.19209602  0.22136237  0.62760108     0.13000
H643        H  0.20254603  0.28019950  0.87676569     0.13000
H644        H  0.18397993  0.22559864  0.87135711     0.13000
H645        H  0.15752020  0.28294345  0.50028794     0.26300
H646        H  0.16859093  0.23106902  0.49863200     0.26300
C647        C  0.37089310  0.35796854  0.87414756     0.86600
C648        C  0.37454261  0.33082040  0.89902042    -0.53600
C649        C  0.34914505  0.31493391  0.90537583     0.09500
C650        C  0.32231177  0.32736240  0.88558729     0.20500
C651        C  0.35584855  0.34429813  0.83927855    -0.54400
C652        C  0.32932311  0.32899371  0.84421391     0.09600
C653        C  0.34707338  0.37530554  0.89343645    -0.53900
C654        C  0.32145942  0.35964956  0.89832510     0.10200
H655        H  0.39403808  0.32663131  0.91485435     0.14700
H656        H  0.30286213  0.31548809  0.89524547     0.00500
H657        H  0.36406909  0.34979355  0.81270088     0.15000
H658        H  0.34909175  0.39919799  0.89936391     0.14800
C659        C  0.37858189  0.35929555  0.63436627     0.86600
C660        C  0.35754523  0.34726461  0.66280199    -0.53600
C661        C  0.32973390  0.33835979  0.65100580     0.09500
C662        C  0.32700732  0.34146039  0.60824089     0.20500
C663        C  0.37933471  0.33343427  0.60574736    -0.54400
C664        C  0.35236561  0.32303556  0.59310450     0.09600
C665        C  0.36176816  0.38331425  0.61553371    -0.53900
C666        C  0.33606643  0.37447167  0.59951212     0.10200
H667        H  0.36424463  0.34781394  0.69061215     0.14700
H668        H  0.30626534  0.33521953  0.59459840     0.00500
H669        H  0.39907140  0.32396134  0.59555382     0.15000
H670        H  0.37137336  0.40567481  0.61158012     0.14800
C671        C  0.12033129  0.14232704  0.62571514     0.86600
C672        C  0.14074538  0.14734908  0.65946701    -0.53600
C673        C  0.16942281  0.15553782  0.65226935     0.09500
C674        C  0.17493384  0.15669261  0.61079767     0.20500
C675        C  0.12405390  0.17097949  0.60321433    -0.54400
C676        C  0.15236261  0.17825144  0.59418460     0.09600
C677        C  0.13618744  0.11841119  0.60422363    -0.53900
C678        C  0.16462047  0.12495698  0.59758529     0.10200
H679        H  0.13452901  0.14181029  0.68659383     0.14700
H680        H  0.19773253  0.16306419  0.60341312     0.00500
H681        H  0.10549990  0.18297971  0.59248295     0.15000
H682        H  0.12555676  0.09764541  0.59483362     0.14800
C683        C  0.11300925  0.15051444  0.86335717     0.86600
C684        C  0.11520059  0.17750657  0.88945565    -0.53600
C685        C  0.14297590  0.18487609  0.90074865     0.09500
C686        C  0.16664481  0.16611143  0.88268575     0.20500
C687        C  0.13385510  0.16067937  0.83133999    -0.54400
C688        C  0.16305983  0.16894824  0.84118300     0.09600
C689        C  0.13028684  0.12625660  0.88266908    -0.53900
C690        C  0.15884684  0.13317071  0.88884420     0.10200
H691        H  0.09729225  0.19046503  0.89872655     0.14700
H692        H  0.18715481  0.17187469  0.89618658     0.00500
H693        H  0.12658405  0.15798788  0.80346153     0.15000
H694        H  0.12120674  0.10405193  0.88796434     0.14800
N695        N  0.32131463  0.46375944  0.45682268    -0.36500
N696        N  0.26176379  0.99638995  0.89906808    -0.57000
N697        N  0.23553854  0.02447632  0.46510416    -0.36500
N698        N  0.28131119  0.01262530  0.51506202    -0.57000
C699        C  0.32103149  0.48072631  0.92887818     0.27100
C700        C  0.32561045  0.48527935  0.48235059     0.27100
C701        C  0.22349370  0.03427227  0.93758181     0.27100
C702        C  0.22362787  0.03495059  0.49594107     0.27100
C703        C  0.28425126  0.48859075  0.88394426     0.35700
C704        C  0.25500255  0.02329015  0.88660048     0.35700
C705        C  0.30170844  0.50106432  0.53629825     0.35700
C706        C  0.26545174  0.02788425  0.53873471     0.35700
C707        C  0.32656793  0.51135643  0.93434545    -0.21800
C708        C  0.32680704  0.51321908  0.46631857    -0.21800
C709        C  0.19724764  0.04461153  0.95053381    -0.21800
C710        C  0.19510770  0.04357338  0.48868718    -0.21800
C711        C  0.29193261  0.50963984  0.85833910    -0.22800
C712        C  0.27353390  0.03231758  0.85914897    -0.22800
C713        C  0.29942393  0.50754599  0.57283270    -0.22800
C714        C  0.27748697  0.02515685  0.57327423    -0.22800
C715        C  0.30263716  0.46880738  0.90021899    -0.18200
C716        C  0.31992085  0.48049163  0.51928947    -0.18200
C717        C  0.23890113  0.04135592  0.52906004    -0.18200
C718        C  0.23374068  0.04010507  0.90260166    -0.18200
H719        H  0.32286959  0.52931496  0.91553563     0.14700
H720        H  0.32874035  0.53483832  0.47986002     0.14700
H721        H  0.17891760  0.05263706  0.93478056     0.14700
H722        H  0.18004498  0.05362835  0.50726309     0.14700
H723        H  0.31189545  0.51073264  0.84295534     0.13000
H724        H  0.27388543  0.05346875  0.84506560     0.13000
H725        H  0.31312237  0.49954070  0.59466378     0.12200
H726        H  0.26916958  0.03418282  0.59824645     0.13000
H727        H  0.32010398  0.44092687  0.46214462     0.26300
H728        H  0.25745453  0.02001498  0.46057827     0.26300
N729        N  0.33617138  0.19275913  0.50387027    -0.36500
N730        N  0.33905542  0.23875614  0.94725173    -0.57000
N731        N  0.34859348  0.28515779  0.50051042    -0.36500
N732        N  0.34349345  0.24239839  0.55915403    -0.57000
C733        C  0.33021629  0.17596003  0.97498953     0.27100
C734        C  0.32967335  0.17756392  0.53447403     0.27100
C735        C  0.35343921  0.30195521  0.97151940     0.27100
C736        C  0.35735449  0.30236624  0.52943830     0.27100
C737        C  0.32753730  0.21489189  0.92833256     0.35700
C738        C  0.33478715  0.26344201  0.92691855     0.35700
C739        C  0.33079382  0.21991464  0.57849512     0.35700
C740        C  0.33764209  0.26871001  0.57624660     0.35700
C741        C  0.31989991  0.14854347  0.98747419    -0.21800
C742        C  0.31722819  0.14986270  0.52483091    -0.21800
C743        C  0.36629995  0.32949956  0.98172786    -0.21800
C744        C  0.37256327  0.32747786  0.51742462    -0.21800
C745        C  0.31390742  0.22520769  0.89726791    -0.22800
C746        C  0.32007331  0.25528027  0.89522914    -0.22800
C747        C  0.31527035  0.23239036  0.60661450    -0.22800
C748        C  0.32051439  0.26298210  0.60601764    -0.22800
C749        C  0.33155347  0.18417688  0.93762952    -0.18200
C750        C  0.33309177  0.18849653  0.57084674    -0.18200
C751        C  0.34878494  0.29745310  0.56568732    -0.18200
C752        C  0.34618746  0.29264066  0.93538369    -0.18200
H753        H  0.30990965  0.13020583  0.97197741     0.14700
H754        H  0.30778146  0.13328049  0.54274427     0.14700
H755        H  0.37340821  0.34787769  0.96493943     0.14700
H756        H  0.38220396  0.34555391  0.53357376     0.14700
H757        H  0.30107451  0.21280317  0.87724106     0.13000
H758        H  0.31433975  0.26906961  0.87256759     0.13000
H759        H  0.30024347  0.22099285  0.62457638     0.13000
H760        H  0.31191893  0.27910561  0.62472895     0.13000
H761        H  0.34704054  0.21350988  0.50315902     0.26300
H762        H  0.33384539  0.26691353  0.50123324     0.26300
N763        N  0.29884217  0.33235423  0.74649514    -0.36500
N764        N  0.25646203  0.34245623  0.80379857    -0.57000
N765        N  0.21166208  0.35368765  0.74927420    -0.36500
N766        N  0.25369628  0.34376828  0.69101128    -0.57000
C767        C  0.31490467  0.32380057  0.77598157     0.27100
C768        C  0.31379467  0.32522989  0.71613471     0.27100
C769        C  0.19784725  0.36343619  0.77939426     0.27100
C770        C  0.19488006  0.36046715  0.72001083     0.27100
C771        C  0.27595163  0.32488555  0.82079833     0.35700
C772        C  0.23247809  0.34297599  0.82483196     0.35700
C773        C  0.27510711  0.33359107  0.66920399     0.35700
C774        C  0.22815566  0.34256878  0.67144384     0.35700
C775        C  0.33986070  0.31035296  0.76430146    -0.21800
C776        C  0.33882668  0.31037877  0.72695856    -0.21800
C777        C  0.17190341  0.37656392  0.76883369    -0.21800
C778        C  0.16987250  0.37434881  0.73175551    -0.21800
C779        C  0.26308085  0.31255167  0.85088365    -0.22800
C780        C  0.23733173  0.32660228  0.85567126    -0.22800
C781        C  0.26251429  0.32453385  0.63643669    -0.22800
C782        C  0.23350203  0.33162431  0.63719445    -0.22800
C783        C  0.30632767  0.32485926  0.81303628    -0.18200
C784        C  0.30546259  0.33158537  0.67905819    -0.18200
C785        C  0.20027270  0.35201642  0.68346473    -0.18200
C786        C  0.20594387  0.35695776  0.81592796    -0.18200
H787        H  0.35606110  0.29993847  0.78117378     0.14700
H788        H  0.35462418  0.30001371  0.70976455     0.14700
H789        H  0.15495705  0.38518707  0.78579946     0.14700
H790        H  0.15129051  0.38123686  0.71576022     0.14700
H791        H  0.27029613  0.29401113  0.86682385     0.13000
H792        H  0.22382931  0.32420508  0.87906622     0.13000
H793        H  0.27176886  0.31124337  0.61532316     0.13000
H794        H  0.21811507  0.32809665  0.61508059     0.13000
H795        H  0.28019622  0.34504257  0.74717147     0.26300
H796        H  0.22936914  0.33963254  0.74868584     0.26300
C797        C  0.14537539  0.38479391  0.87959523     0.86600
C798        C  0.15756960  0.36747447  0.91321355    -0.53600
C799        C  0.16988326  0.33981966  0.90580482     0.09500
C800        C  0.16930214  0.33381653  0.86438060     0.20500
C801        C  0.17166599  0.38726008  0.85374035    -0.54400
C802        C  0.18381268  0.36065546  0.84535731     0.09600
C803        C  0.12469125  0.36110865  0.86122758    -0.53900
C804        C  0.13726225  0.33460996  0.85407699     0.10200
H805        H  0.15285466  0.37494018  0.94041209     0.14700
H806        H  0.17818779  0.31317459  0.85431655     0.00500
H807        H  0.17958299  0.40704345  0.84047639     0.15000
H808        H  0.10118592  0.36384402  0.85786437     0.14800
C809        C  0.13619519  0.37676238  0.62059118     0.86600
C810        C  0.16324851  0.37990584  0.64624576    -0.53600
C811        C  0.17525078  0.35350300  0.65635565     0.09500
C812        C  0.15979864  0.32575220  0.63835957     0.20500
C813        C  0.14805014  0.35839978  0.58816588    -0.54400
C814        C  0.16138760  0.33172669  0.59690735     0.09600
C815        C  0.11535197  0.35404546  0.63852050    -0.53900
C816        C  0.12708304  0.32762328  0.64754729     0.10200
H817        H  0.17174054  0.40142005  0.65646147     0.14700
H818        H  0.16831390  0.30482933  0.64884155     0.00500
H819        H  0.14499253  0.36441445  0.56057255     0.15000
H820        H  0.09252902  0.35866247  0.64394578     0.14800
C821        C  0.36089683  0.12078021  0.62884124     0.86600
C822        C  0.33431823  0.12068075  0.65425594    -0.53600
C823        C  0.32364463  0.14827265  0.66161023     0.09500
C824        C  0.34030966  0.17384428  0.64248636     0.20500
C825        C  0.35051494  0.13786942  0.59479648    -0.54400
C826        C  0.33904689  0.16600838  0.60126560     0.09600
C827        C  0.38333421  0.14349836  0.64512288    -0.53900
C828        C  0.37264473  0.17047469  0.65354319     0.10200
H829        H  0.32536299  0.10042397  0.66648441     0.14700
H830        H  0.33268072  0.19577523  0.65121619     0.00500
H831        H  0.35577405  0.13054036  0.56802234     0.15000
H832        H  0.40636111  0.13861744  0.64946279     0.14800
C833        C  0.35406263  0.11293991  0.87830675     0.86600
C834        C  0.34517492  0.13080549  0.91309011    -0.53600
C835        C  0.33774691  0.16071444  0.90759361     0.09500
C836        C  0.34183526  0.16895768  0.86696106     0.20500
C837        C  0.32795792  0.11750026  0.85210300    -0.54400
C838        C  0.32111853  0.14654363  0.84602977     0.09600
C839        C  0.37943999  0.13218513  0.86501896    -0.53900
C840        C  0.37404393  0.16107300  0.85893432     0.10200
H841        H  0.34727720  0.12114326  0.93945435     0.14700
H842        H  0.33879669  0.19196008  0.85804929     0.00500
H843        H  0.31493586  0.09937240  0.84000535     0.15000
H844        H  0.40140185  0.12399353  0.86669006     0.14800
N845        N  0.03270778  0.23478912  0.77935978    -0.36500
N846        N  0.00160829  0.24080119  0.85143355    -0.57000
N847        N  0.45222644  0.28282419  0.77651990    -0.36500
N848        N  0.99108728  0.25517781  0.72677651    -0.57000
C849        C  0.04963143  0.22369424  0.80617044     0.27100
C850        C  0.04672587  0.23057554  0.74800137     0.27100
C851        C  0.43734031  0.27603783  0.80682331     0.27100
C852        C  0.43342245  0.27740103  0.74832139     0.27100
C853        C  0.02828213  0.25460829  0.85135853     0.35700
C854        C  0.48052003  0.26744116  0.84512044     0.35700
C855        C  0.01536358  0.25920171  0.70711252     0.35700
C856        C  0.47172618  0.27058078  0.70465144     0.35700
C857        C  0.07116398  0.20652032  0.79083283    -0.21800
C858        C  0.07038599  0.21246813  0.75409234    -0.21800
C859        C  0.40781703  0.27131639  0.79807561    -0.21800
C860        C  0.40541631  0.27197431  0.76102109    -0.21800
C861        C  0.02553645  0.28558571  0.85178131    -0.22800
C862        C  0.49503847  0.29503544  0.84561388    -0.22800
C863        C  0.00931355  0.27586089  0.67647907    -0.22800
C864        C  0.48351693  0.28287050  0.67383968    -0.22800
C865        C  0.05342467  0.24030593  0.83899836    -0.18200
C866        C  0.04315146  0.24969414  0.71812864    -0.18200
C867        C  0.44221210  0.26957996  0.71307831    -0.18200
C868        C  0.45094827  0.26206439  0.83643915    -0.18200
H869        H  0.08960295  0.19726584  0.80512591     0.14700
H870        H  0.08766661  0.20790918  0.73535228     0.14700
H871        H  0.39073471  0.26332664  0.81590914     0.14700
H872        H  0.38620746  0.26487679  0.74523067     0.14700
H873        H  0.04276612  0.30251480  0.84855765     0.13000
H874        H  0.48560608  0.31671713  0.84128254     0.13000
H875        H  0.02431960  0.28247521  0.65540421     0.13000
H876        H  0.47238475  0.29550805  0.65319383     0.13000
H877        H  0.01732999  0.25127288  0.78327960     0.26300
H878        H  0.47500134  0.28511108  0.77501811     0.26300
N879        N  0.19920000  0.16177870  0.74899895    -0.36500
N880        N  0.24312880  0.15895050  0.80702145    -0.57000
N881        N  0.28958640  0.15367012  0.75304396    -0.36500
N882        N  0.24649407  0.15878768  0.69479077    -0.57000
C883        C  0.18359898  0.17355853  0.77662667     0.27100
C884        C  0.18562609  0.16898199  0.71728191     0.27100
C885        C  0.30623443  0.15875987  0.78312571     0.27100
C886        C  0.30686839  0.15996250  0.72445016     0.27100
C887        C  0.22013840  0.16845714  0.82712087     0.35700
C888        C  0.26740036  0.15797167  0.82934245     0.35700
C889        C  0.22247720  0.14956448  0.67517789     0.35700
C890        C  0.27009672  0.14814592  0.67720642     0.35700
C891        C  0.16056467  0.18938186  0.76201161    -0.21800
C892        C  0.16176638  0.18643396  0.72484921    -0.21800
C893        C  0.33407792  0.16876635  0.77366718    -0.21800
C894        C  0.33416887  0.17007742  0.73664632    -0.21800
C895        C  0.23169755  0.17684165  0.86088276    -0.22800
C896        C  0.26015900  0.16777360  0.86320794    -0.22800
C897        C  0.23143742  0.13243173  0.64631086    -0.22800
C898        C  0.26134594  0.13223506  0.64673181    -0.22800
C899        C  0.18967409  0.17075377  0.81462898    -0.18200
C900        C  0.19316187  0.15820866  0.68209831    -0.18200
C901        C  0.29952724  0.15312584  0.68811938    -0.18200
C902        C  0.29723262  0.15426712  0.81887249    -0.18200
H903        H  0.14486929  0.20244100  0.77656507     0.14700
H904        H  0.14684635  0.19630479  0.70558698     0.14700
H905        H  0.35220258  0.17537799  0.79145308     0.14700
H906        H  0.35209078  0.17806014  0.72060725     0.14700
H907        H  0.22338623  0.19278165  0.87981741     0.13000
H908        H  0.27491384  0.17179785  0.88595346     0.13000
H909        H  0.21823490  0.12021174  0.62748685     0.13000
H910        H  0.27490314  0.12068172  0.62762782     0.13000
H911        H  0.21615550  0.14676519  0.75146846     0.26300
H912        H  0.26899050  0.14292992  0.75215320     0.26300
C913        C  0.39715107  0.20922309  0.87968390    -0.05700
C914        C  0.39869855  0.18390377  0.85695078     0.00300
C915        C  0.42385548  0.18140812  0.83447703    -0.08300
C916        C  0.44071671  0.20762325  0.82800961    -0.05700
C917        C  0.43692637  0.23365982  0.84845405     0.00300
C918        C  0.41742443  0.23324260  0.87731657    -0.08200
C919        C  0.41871692  0.25822263  0.90501074     0.62200
H920        H  0.38052275  0.20982816  0.90000715     0.12900
H921        H  0.45760733  0.20793012  0.80771100     0.12900
C922        C  0.43573432  0.15185948  0.82079055     0.62400
F923        F  0.41346673  0.28481056  0.88794478    -0.22800
F924        F  0.44639574  0.25988626  0.92089447    -0.20100
F925        F  0.39853849  0.25382099  0.93203332    -0.19800
F926        F  0.41410075  0.13401514  0.80422103    -0.19800
F927        F  0.44793133  0.13680817  0.84963573    -0.20100
F928        F  0.45785188  0.15641532  0.79600145    -0.22800
C929        C  0.39012038  0.22283759  0.65230486    -0.05700
C930        C  0.39143528  0.19498692  0.66904141     0.00300
C931        C  0.41063876  0.19161701  0.69922312    -0.08300
C932        C  0.42824013  0.21623839  0.71057726    -0.05700
C933        C  0.42545895  0.24456442  0.69518375     0.00300
C934        C  0.40621339  0.24789744  0.66552188    -0.08200
C935        C  0.40086644  0.27694520  0.64712374     0.62200
H936        H  0.37596491  0.22528168  0.62881745     0.12900
H937        H  0.44299349  0.21388682  0.73368064     0.12900
C938        C  0.41186606  0.16453720  0.72345413     0.62400
F939        F  0.37138704  0.28247157  0.64978779    -0.22800
F940        F  0.40810998  0.27384117  0.61109782    -0.20100
F941        F  0.41663252  0.30105904  0.66201896    -0.19800
F942        F  0.43950265  0.15262716  0.72204500    -0.19800
F943        F  0.39129640  0.14211651  0.71570200    -0.20100
F944        F  0.40665921  0.17437234  0.75812397    -0.22800
C945        C  0.08076156  0.25755271  0.67149441    -0.05700
C946        C  0.06880923  0.26696709  0.70408098     0.00300
C947        C  0.07657786  0.29599964  0.71812144    -0.08300
C948        C  0.09821501  0.31323180  0.70048516    -0.05700
C949        C  0.10908000  0.30456580  0.66680247     0.00300
C950        C  0.09844170  0.27707441  0.65093163    -0.08200
C951        C  0.10145334  0.26837929  0.61159960     0.62200
H952        H  0.07304281  0.23629780  0.65978863     0.12900
H953        H  0.10497552  0.33506606  0.71128134     0.12900
C954        C  0.06033237  0.31015634  0.74938680     0.62400
F955        F  0.07390034  0.26219954  0.59658395    -0.22800
F956        F  0.11759730  0.24284534  0.60949488    -0.20100
F957        F  0.11429104  0.29056563  0.59119165    -0.19800
F958        F  0.05992173  0.29149074  0.77865316    -0.19800
F959        F  0.03175432  0.31555183  0.73900714    -0.20100
F960        F  0.07326429  0.33719545  0.76057804    -0.22800
C961        C  0.10543515  0.29673655  0.88242955    -0.05700
C962        C  0.12012903  0.30653042  0.85153937     0.00300
C963        C  0.12015657  0.28854328  0.82027404    -0.08300
C964        C  0.10172225  0.26310373  0.81920807    -0.05700
C965        C  0.08265972  0.25564060  0.84788648     0.00300
C966        C  0.08753080  0.27075006  0.88164932    -0.08200
C967        C  0.07261024  0.26210654  0.91661500     0.62200
H968        H  0.10759416  0.30984498  0.90726474     0.12900
H969        H  0.09990083  0.25204141  0.79358177     0.12900
C970        C  0.13748658  0.29752960  0.78699071     0.62400
F971        F  0.09340786  0.26062304  0.94414628    -0.22800
F972        F  0.05813502  0.23456065  0.91416855    -0.20100
F973        F  0.05272342  0.28363330  0.92578174    -0.19800
F974        F  0.16720965  0.29653563  0.79428332    -0.19800
F975        F  0.13056214  0.32624916  0.77711390    -0.20100
F976        F  0.13143709  0.27867391  0.75768803    -0.22800
C977        C  0.20788746  0.11540516  0.90412455    -0.05700
C978        C  0.18154190  0.11035403  0.88441087     0.00300
C979        C  0.17955876  0.08569702  0.85893520    -0.08300
C980        C  0.20034156  0.06359537  0.86185945    -0.05700
C981        C  0.22395938  0.06721171  0.88550868     0.00300
C982        C  0.23025702  0.09490488  0.90252628    -0.08200
C983        C  0.26056184  0.10211369  0.91813735     0.62200
H984        H  0.21089452  0.13505325  0.92129959     0.12900
H985        H  0.19701032  0.04217801  0.84805016     0.12900
C986        C  0.15712450  0.08161929  0.82819230     0.62400
F987        F  0.28065994  0.09824746  0.89136825    -0.22800
F988        F  0.26737959  0.08325336  0.94608915    -0.20100
F989        F  0.26328434  0.13140437  0.93051005    -0.19800
F990        F  0.16523656  0.05978973  0.80368657    -0.19800
F991        F  0.15509874  0.10769391  0.80893207    -0.20100
F992        F  0.13018649  0.07259851  0.84116489    -0.22800
C993        C  0.20204727  0.11221841  0.55426382    -0.05700
C994        C  0.18399110  0.10237740  0.58194146     0.00300
C995        C  0.18845919  0.07363647  0.59765601    -0.08300
C996        C  0.20878920  0.05465796  0.58160110    -0.05700
C997        C  0.22601713  0.06434805  0.55279791     0.00300
C998        C  0.22399068  0.09433841  0.54078085    -0.08200
C999        C  0.24304674  0.10805224  0.51206427     0.62200
H1000       H  0.19944351  0.13458005  0.54358190     0.12900
H1001       H  0.21057421  0.03170071  0.59044769     0.12900
C1002       C  0.17351079  0.06332427  0.63214194     0.62400
F1003       F  0.25278479  0.13635798  0.52321038    -0.22800
F1004       F  0.22630907  0.11073752  0.48090934    -0.20100
F1005       F  0.26736109  0.09129716  0.50519566    -0.19800
F1006       F  0.14407764  0.05697542  0.62565047    -0.19800
F1007       F  0.17665899  0.08526073  0.65870677    -0.20100
F1008       F  0.18573974  0.03755922  0.64556849    -0.22800
C1009       C  0.29773330  0.43628892  0.55138213    -0.05700
C1010       C  0.32239180  0.44981645  0.53462851     0.00300
C1011       C  0.34844247  0.43352319  0.53192378    -0.08300
C1012       C  0.34865172  0.40456911  0.54621864    -0.05700
C1013       C  0.32614606  0.39358367  0.56883734     0.00300
C1014       C  0.29951637  0.40877893  0.56961288    -0.08200
C1015       C  0.27342358  0.39616149  0.58984104     0.62200
H1016       H  0.27728855  0.44800983  0.55136233     0.12900
H1017       H  0.36871355  0.39236756  0.54509133     0.12900
C1018       C  0.37702893  0.44759009  0.51812217     0.62400
F1019       F  0.24983836  0.41497190  0.58837152    -0.22800
F1020       F  0.28092203  0.39217395  0.62582178    -0.20100
F1021       F  0.26467960  0.36894359  0.57438688    -0.19800
F1022       F  0.38199659  0.47551681  0.53404297    -0.19800
F1023       F  0.37595188  0.45053730  0.48098159    -0.20100
F1024       F  0.40094167  0.43036585  0.52648996    -0.22800
C1025       C  0.28772142  0.39038416  0.86683735    -0.05700
C1026       C  0.29424759  0.37629936  0.89947558     0.00300
C1027       C  0.28720806  0.39086819  0.93188355    -0.08300
C1028       C  0.28398894  0.42192258  0.93094515    -0.05700
C1029       C  0.29065171  0.43742220  0.89900324     0.00300
C1030       C  0.28643894  0.42151896  0.86569262    -0.08200
C1031       C  0.28187330  0.43642901  0.82923247     0.62200
H1032       H  0.29124569  0.37862536  0.84188400     0.12900
H1033       H  0.27952655  0.43403989  0.95569954     0.12900
C1034       C  0.28659831  0.37490132  0.96765426     0.62400
F1035       F  0.27741019  0.41555803  0.80153398    -0.22800
F1036       F  0.30603959  0.45418248  0.82073524    -0.20100
F1037       F  0.25715902  0.45363156  0.83023809    -0.19800
F1038       F  0.30958549  0.38555747  0.98945722    -0.19800
F1039       F  0.28899290  0.34425530  0.96305598    -0.20100
F1040       F  0.26039117  0.38021637  0.98460123    -0.22800
C1041       C  0.08482716  0.44172993  0.59041995    -0.05700
C1042       C  0.07506737  0.45153055  0.62448021     0.00300
C1043       C  0.09040319  0.44154513  0.65567676    -0.08300
C1044       C  0.11140496  0.41923700  0.65161135    -0.05700
C1045       C  0.11917220  0.40673197  0.61777609     0.00300
C1046       C  0.10726395  0.42058099  0.58623111    -0.08200
C1047       C  0.11736163  0.41421144  0.54813924     0.62200
H1048       H  0.07413673  0.45035077  0.56649063     0.12900
H1049       H  0.12077492  0.40978422  0.67583434     0.12900
C1050       C  0.08463918  0.45349050  0.69354624     0.62400
F1051       F  0.10817980  0.43576740  0.52409112    -0.22800
F1052       F  0.10567678  0.38688198  0.53612433    -0.20100
F1053       F  0.14770604  0.41479411  0.54735808    -0.19800
F1054       F  0.05673739  0.44471275  0.70411082    -0.19800
F1055       F  0.08752595  0.48445644  0.69394700    -0.20100
F1056       F  0.10431636  0.44290276  0.71899090    -0.22800
C1057       C  0.05739082  0.09472981  0.66073406    -0.05700
C1058       C  0.04679049  0.08236089  0.62753234     0.00300
C1059       C  0.05215882  0.09907635  0.59553487    -0.08300
C1060       C  0.07303403  0.12304044  0.59718152    -0.05700
C1061       C  0.08815801  0.13111597  0.62961706     0.00300
C1062       C  0.07597902  0.12046618  0.66220327    -0.08200
C1063       C  0.07815456  0.13782012  0.69751557     0.62200
H1064       H  0.05042753  0.08490716  0.68601490     0.12900
H1065       H  0.08043733  0.13305157  0.57222052     0.12900
C1066       C  0.03694087  0.09168641  0.55955417     0.62400
F1067       F  0.05038984  0.14066012  0.71154407    -0.22800
F1068       F  0.08959308  0.16645552  0.69234209    -0.20100
F1069       F  0.09519296  0.12281981  0.72235554    -0.19800
F1070       F  0.00693705  0.08884733  0.56430697    -0.19800
F1071       F  0.04738995  0.06532370  0.54545684    -0.20100
F1072       F  0.04178422  0.11407754  0.53444592    -0.22800
C1073       C  0.40676626  0.05260790  0.60019289    -0.05700
C1074       C  0.42222413  0.04804282  0.63314265     0.00300
C1075       C  0.41148649  0.06191054  0.66499941    -0.08300
C1076       C  0.38774105  0.08116246  0.66174212    -0.05700
C1077       C  0.37598541  0.08998381  0.62803989     0.00300
C1078       C  0.38313281  0.07247948  0.59727312    -0.08200
C1079       C  0.36487774  0.07154502  0.56263117     0.62200
H1080       H  0.41331387  0.04060235  0.57615515     0.12900
H1081       H  0.38010952  0.09237966  0.68570343     0.12900
C1082       C  0.42565124  0.05846979  0.70230408     0.62400
F1083       F  0.36420850  0.04292622  0.54773257    -0.22800
F1084       F  0.37700142  0.09094769  0.53764971    -0.20100
F1085       F  0.33611367  0.07871655  0.56925177    -0.19800
F1086       F  0.45438727  0.06933905  0.70194566    -0.19800
F1087       F  0.42479725  0.02862960  0.71211638    -0.20100
F1088       F  0.41142128  0.07435659  0.72882268    -0.22800
C1089       C  0.42928490  0.42306122  0.66857057    -0.05700
C1090       C  0.45137092  0.42152798  0.64294888     0.00300
C1091       C  0.45472883  0.39446579  0.62358570    -0.08300
C1092       C  0.43316629  0.37131571  0.62692550    -0.05700
C1093       C  0.40777623  0.37474018  0.64803231     0.00300
C1094       C  0.40776651  0.40011948  0.67245686    -0.08200
C1095       C  0.38556058  0.40413617  0.70257300     0.62200
H1096       H  0.42836931  0.44336380  0.68474373     0.12900
H1097       H  0.43525349  0.35169544  0.61021240     0.12900
C1098       C  0.48049572  0.39031163  0.59873971     0.62400
F1099       F  0.38842129  0.38148132  0.72753252    -0.22800
F1100       F  0.35717260  0.40437184  0.68896786    -0.20100
F1101       F  0.39023421  0.43090054  0.72136100    -0.19800
F1102       F  0.50639518  0.39905089  0.61641521    -0.19800
F1103       F  0.47694120  0.40746063  0.56811261    -0.20100
F1104       F  0.48284506  0.36067272  0.58800530    -0.22800
C1105       C  0.08178403  0.11243807  0.82772848    -0.05700
C1106       C  0.08215278  0.13519134  0.85461961     0.00300
C1107       C  0.05968327  0.13224969  0.88126018    -0.08300
C1108       C  0.04403628  0.10461004  0.88537765    -0.05700
C1109       C  0.04643526  0.08063734  0.86101283     0.00300
C1110       C  0.06435083  0.08553594  0.83005691    -0.08200
C1111       C  0.06672103  0.06193361  0.80034672     0.62200
H1112       H  0.09753967  0.11450672  0.80633467     0.12900
H1113       H  0.02862861  0.10213180  0.90726032     0.12900
C1114       C  0.04780557  0.15905218  0.90095328     0.62400
F1115       F  0.08749182  0.06993982  0.77498351    -0.22800
F1116       F  0.04004392  0.05822920  0.78225783    -0.20100
F1117       F  0.07476215  0.03497193  0.81518085    -0.19800
F1118       F  0.04919822  0.18375453  0.87878652    -0.19800
F1119       F  0.06325509  0.16435204  0.93298496    -0.20100
F1120       F  0.01849782  0.15444567  0.90930158    -0.22800
C1121       C  0.09986421  0.45581721  0.86380126    -0.05700
C1122       C  0.07498392  0.44879414  0.88438371     0.00300
C1123       C  0.07752773  0.42547427  0.91049763    -0.08300
C1124       C  0.10278631  0.40791422  0.91087663    -0.05700
C1125       C  0.12663451  0.41291751  0.88773430     0.00300
C1126       C  0.12641374  0.44012734  0.86741351    -0.08200
C1127       C  0.15402974  0.45642164  0.85482650     0.62200
H1128       H  0.09920327  0.47525659  0.84644728     0.12900
H1129       H  0.10297160  0.38842156  0.92815198     0.12900
C1130       C  0.05482292  0.41682676  0.93853777     0.62400
F1131       F  0.15131890  0.48717021  0.85818963    -0.22800
F1132       F  0.15867309  0.44987978  0.81873926    -0.20100
F1133       F  0.17805554  0.44914139  0.87602762    -0.19800
F1134       F  0.04828823  0.38637505  0.93601670    -0.19800
F1135       F  0.02892403  0.43149222  0.93516979    -0.20100
F1136       F  0.06648636  0.42306961  0.97263967    -0.22800
C1137       C  0.42561599  0.37250405  0.88415647    -0.05700
C1138       C  0.39796931  0.37942542  0.86859530     0.00300
C1139       C  0.39556342  0.40871920  0.85315058    -0.08300
C1140       C  0.41870924  0.42992532  0.85839689    -0.05700
C1141       C  0.44438124  0.42387430  0.87782567     0.00300
C1142       C  0.44848755  0.39433372  0.88975739    -0.08200
C1143       C  0.47686282  0.38596978  0.90824882     0.62200
H1144       H  0.42961270  0.34998748  0.89258788     0.12900
H1145       H  0.41642468  0.45225496  0.84743657     0.12900
C1146       C  0.36951376  0.42078395  0.83201906     0.62400
F1147       F  0.47990921  0.40174507  0.94051219    -0.22800
F1148       F  0.50020679  0.39296447  0.88609426    -0.20100
F1149       F  0.47751087  0.35567173  0.91588546    -0.19800
F1150       F  0.35915412  0.44530937  0.85051515    -0.19800
F1151       F  0.34640071  0.40082766  0.82618676    -0.20100
F1152       F  0.37889907  0.43010472  0.79842617    -0.22800
C1153       C  0.40251850  0.04889147  0.84973276    -0.05700
C1154       C  0.41737200  0.04353632  0.88237987     0.00300
C1155       C  0.40336057  0.05242490  0.91504701    -0.08300
C1156       C  0.37860849  0.07097815  0.91300496    -0.05700
C1157       C  0.36671451  0.08075401  0.87984032     0.00300
C1158       C  0.37707715  0.06623760  0.84761851    -0.08200
C1159       C  0.36257874  0.06925359  0.81033929     0.62200
H1160       H  0.41173007  0.04006000  0.82518950     0.12900
H1161       H  0.37008036  0.07980793  0.93778808     0.12900
C1162       C  0.41453363  0.04350591  0.95232101     0.62400
F1163       F  0.37587121  0.05198486  0.78433697    -0.22800
F1164       F  0.36409276  0.09856471  0.79873089    -0.20100
F1165       F  0.33370381  0.05919127  0.81144241    -0.19800
F1166       F  0.44112182  0.05811322  0.95997791    -0.19800
F1167       F  0.41775335  0.01279451  0.95353761    -0.20100
F1168       F  0.39528018  0.05096641  0.97933942    -0.22800
O1169       O  0.01837367  0.53594101  0.34107826    -0.72800
O1170       O  0.47207138  0.95880945  0.35212121    -0.73800
O1171       O  0.45795192  0.51879792  0.35070800    -0.62400
O1172       O  0.03582061  0.97453402  0.35027288    -0.70800
O1173       O  0.03509293  0.97827335  0.40980916    -0.70400
O1174       O  0.46184920  0.52264854  0.40997289    -0.61600
O1175       O  0.47271631  0.96131107  0.41205393    -0.74100
O1176       O  0.02216902  0.54211477  0.40023895    -0.72900
Cu1177     Cu  0.49518752  0.99661818  0.34763948     1.04600
Cu1178     Cu  0.99864780  0.50208521  0.40962173     1.04300
C1179       C  0.02765721  0.55159801  0.36806461     0.93400
C1180       C  0.46395343  0.94837506  0.38232549     0.92500
C1181       C  0.44709348  0.52714488  0.38116364     0.84700
C1182       C  0.04743904  0.96881286  0.38147997     0.90900
O1183       O  0.03691195  0.97795127  0.15901918    -0.72800
O1184       O  0.46302629  0.52157606  0.16101615    -0.73800
O1185       O  0.47821089  0.96333535  0.16674928    -0.62400
O1186       O  0.02407926  0.54135820  0.15743145    -0.70800
O1187       O  0.01951128  0.53863004  0.09802589    -0.70400
O1188       O  0.47427249  0.96036246  0.10707267    -0.61600
O1189       O  0.45925674  0.51835299  0.10163989    -0.74100
O1190       O  0.03284639  0.97379002  0.09968528    -0.72900
Cu1191     Cu  0.50068381  0.00280987  0.16505883     1.04600
Cu1192     Cu  0.99523981  0.99739715  0.09932488     1.04300
C1193       C  0.04637081  0.96753613  0.12918141     0.93400
C1194       C  0.44897199  0.52731246  0.13178939     0.92500
C1195       C  0.46899663  0.94935157  0.13823115     0.84700
C1196       C  0.02860703  0.55288860  0.12648215     0.90900
N1197       N  0.17015897  0.80362528  0.00150611    -0.36500
N1198       N  0.16568599  0.75414728  0.05587771    -0.57000
N1199       N  0.15654000  0.71101901  0.99838283    -0.36500
N1200       N  0.15733238  0.76258061  0.44253286    -0.57000
C1201       C  0.17515392  0.81936350  0.03268313     0.27100
C1202       C  0.17570213  0.82382438  0.47265839     0.27100
C1203       C  0.15048381  0.69350897  0.02746997     0.27100
C1204       C  0.14338430  0.69913444  0.46801285     0.27100
C1205       C  0.17664084  0.77736611  0.07623342     0.35700
C1206       C  0.17141794  0.72850801  0.07386698     0.35700
C1207       C  0.17155646  0.78491276  0.42439449     0.35700
C1208       C  0.15999546  0.73689326  0.42294513     0.35700
C1209       C  0.18471487  0.84818050  0.02404167    -0.21800
C1210       C  0.18741935  0.85081798  0.48613942    -0.21800
C1211       C  0.13598039  0.66741444  0.01546838    -0.21800
C1212       C  0.13066247  0.67191739  0.47816777    -0.21800
C1213       C  0.19087148  0.76595611  0.10645276    -0.22800
C1214       C  0.18681490  0.73523831  0.10548153    -0.22800
C1215       C  0.18497127  0.77208066  0.39471497    -0.22800
C1216       C  0.17629235  0.74250011  0.39266643    -0.22800
C1217       C  0.17164358  0.80825412  0.06868245    -0.18200
C1218       C  0.17258488  0.81617724  0.43504025    -0.18200
C1219       C  0.14779929  0.70838544  0.43173655    -0.18200
C1220       C  0.15938031  0.69988970  0.06405519    -0.18200
H1221       H  0.19204188  0.86578223  0.04273082     0.14700
H1222       H  0.19635047  0.86942491  0.47086105     0.14700
H1223       H  0.12910862  0.64837000  0.03146033     0.14700
H1224       H  0.12157511  0.65437529  0.46062898     0.14700
H1225       H  0.20382905  0.77792154  0.12680171     0.13000
H1226       H  0.19444281  0.71968547  0.12560322     0.13000
H1227       H  0.20174383  0.78125603  0.37777606     0.13000
H1228       H  0.18313756  0.72656354  0.37253666     0.13000
H1229       H  0.16166576  0.78188150  0.00036117     0.26300
H1230       H  0.17004474  0.73021082  0.99819440     0.26300
C1231       C  0.37014060  0.85549920  0.37266769     0.86600
C1232       C  0.37490908  0.82817027  0.39689332    -0.53600
C1233       C  0.35001013  0.81168406  0.40389807     0.09500
C1234       C  0.32260221  0.82341234  0.38471879     0.20500
C1235       C  0.35491193  0.84172573  0.33787249    -0.54400
C1236       C  0.32893258  0.82546318  0.34334459     0.09600
C1237       C  0.34607656  0.87186775  0.39273112    -0.53900
C1238       C  0.32092399  0.85553296  0.39756051     0.10200
H1239       H  0.39487222  0.82433864  0.41185488     0.14700
H1240       H  0.30360538  0.81094023  0.39458041     0.00500
H1241       H  0.36249164  0.84760340  0.31110961     0.15000
H1242       H  0.34739031  0.89570641  0.39906027     0.14800
C1243       C  0.37730084  0.85774885  0.13611248     0.86600
C1244       C  0.35598833  0.84600366  0.16467789    -0.53600
C1245       C  0.32821697  0.83693652  0.15242832     0.09500
C1246       C  0.32570155  0.83986818  0.10978771     0.20500
C1247       C  0.37789270  0.83121545  0.10841904    -0.54400
C1248       C  0.35095418  0.82098407  0.09560021     0.09600
C1249       C  0.36039297  0.88166685  0.11731377    -0.53900
C1250       C  0.33486488  0.87281388  0.10099340     0.10200
H1251       H  0.36229602  0.84617104  0.19262153     0.14700
H1252       H  0.30510339  0.83369464  0.09582191     0.00500
H1253       H  0.39763206  0.82076130  0.09966159     0.15000
H1254       H  0.36986407  0.90412561  0.11357521     0.14800
C1255       C  0.11832868  0.64278968  0.12479483     0.86600
C1256       C  0.13748241  0.64874687  0.15961224    -0.53600
C1257       C  0.16668434  0.65603336  0.15366734     0.09500
C1258       C  0.17359299  0.65627742  0.11243846     0.20500
C1259       C  0.12312404  0.67060601  0.10120362    -0.54400
C1260       C  0.15178054  0.67755283  0.09351473     0.09600
C1261       C  0.13487778  0.61816546  0.10546036    -0.53900
C1262       C  0.16343715  0.62439130  0.09967563     0.10200
H1263       H  0.12985848  0.64439893  0.18655180     0.14700
H1264       H  0.19681355  0.66216410  0.10653958     0.00500
H1265       H  0.10501349  0.68230438  0.08886500     0.15000
H1266       H  0.12454012  0.59711010  0.09668934     0.14800
C1267       C  0.11071483  0.65148600  0.36555283     0.86600
C1268       C  0.11329996  0.67917305  0.39038951    -0.53600
C1269       C  0.14120155  0.68615708  0.40174285     0.09500
C1270       C  0.16461273  0.66637233  0.38460475     0.20500
C1271       C  0.13198855  0.66059128  0.33330778    -0.54400
C1272       C  0.16125770  0.66863452  0.34309506     0.09600
C1273       C  0.12737276  0.62748782  0.38596419    -0.53900
C1274       C  0.15609575  0.63361848  0.39144797     0.10200
H1275       H  0.09538238  0.69267967  0.39869811     0.14700
H1276       H  0.18517568  0.67183289  0.39818236     0.00500
H1277       H  0.12485617  0.65787723  0.30538736     0.15000
H1278       H  0.11777400  0.60571953  0.39223542     0.14800
N1279       N  0.32723985  0.96338665  0.95649062    -0.36500
N1280       N  0.25297488  0.49258053  0.40108222    -0.57000
N1281       N  0.23773812  0.52700727  0.96508746    -0.36500
N1282       N  0.28159312  0.51452857  0.01815094    -0.57000
C1283       C  0.31476153  0.97502501  0.42313238     0.27100
C1284       C  0.33048836  0.98405407  0.98322426     0.27100
C1285       C  0.21608274  0.53219484  0.43949944     0.27100
C1286       C  0.22432708  0.53669081  0.99529093     0.27100
C1287       C  0.27618311  0.98251037  0.38052316     0.35700
C1288       C  0.24556627  0.51880365  0.38730454     0.35700
C1289       C  0.30511185  0.99981100  0.03648180     0.35700
C1290       C  0.26429215  0.52909051  0.04078750     0.35700
C1291       C  0.32126304  0.00560274  0.42742442    -0.21800
C1292       C  0.33371332  0.01235011  0.96848976    -0.21800
C1293       C  0.19072545  0.54417214  0.45296583    -0.21800
C1294       C  0.19625152  0.54570338  0.98627864    -0.21800
C1295       C  0.28323848  0.00332708  0.35433051    -0.22800
C1296       C  0.26263287  0.52653990  0.35793744    -0.22800
C1297       C  0.30129011  0.00461360  0.07316949    -0.22800
C1298       C  0.27529861  0.52739977  0.07595258    -0.22800
C1299       C  0.29508363  0.96294666  0.39607049    -0.18200
C1300       C  0.32249575  0.97855770  0.01942713    -0.18200
C1301       C  0.23791633  0.54195611  0.02966871    -0.18200
C1302       C  0.22566903  0.53676184  0.40396138    -0.18200
H1303       H  0.31740184  0.02330848  0.40831739     0.14700
H1304       H  0.33549971  0.03354613  0.98298136     0.14700
H1305       H  0.17250989  0.55285145  0.43755953     0.14700
H1306       H  0.18036584  0.55546555  0.00399823     0.14700
H1307       H  0.30261531  0.00423500  0.33779575     0.13000
H1308       H  0.26230380  0.54702950  0.34252027     0.13000
H1309       H  0.31324129  0.99457094  0.09525844     0.12200
H1310       H  0.26580013  0.53641374  0.10025125     0.13000
H1311       H  0.32511596  0.94041479  0.96067885     0.26300
H1312       H  0.25989225  0.52275640  0.96221686     0.26300
N1313       N  0.33572732  0.69180287  0.00529394    -0.36500
N1314       N  0.33951357  0.73604959  0.44721842    -0.57000
N1315       N  0.34604744  0.78418341  0.00308661    -0.36500
N1316       N  0.34309751  0.74029478  0.06165288    -0.57000
C1317       C  0.32949987  0.67392166  0.47606851     0.27100
C1318       C  0.33065122  0.67562226  0.03565584     0.27100
C1319       C  0.35582369  0.79913973  0.47013272     0.27100
C1320       C  0.35526202  0.80085274  0.03219598     0.27100
C1321       C  0.32700740  0.71227341  0.42906023     0.35700
C1322       C  0.33555007  0.76056884  0.42653125     0.35700
C1323       C  0.33035084  0.71750907  0.08046145     0.35700
C1324       C  0.33672115  0.76640951  0.07883287     0.35700
C1325       C  0.31781048  0.64728691  0.48917910    -0.21800
C1326       C  0.32018757  0.64733134  0.02525296    -0.21800
C1327       C  0.36946209  0.82646005  0.47986439    -0.21800
C1328       C  0.36973844  0.82648162  0.02059552    -0.21800
C1329       C  0.31305511  0.72249116  0.39822493    -0.22800
C1330       C  0.31994186  0.75233804  0.39543314    -0.22800
C1331       C  0.31426312  0.72965752  0.10833764    -0.22800
C1332       C  0.31921979  0.76032951  0.10816623    -0.22800
C1333       C  0.33047207  0.68159524  0.43869746    -0.18200
C1334       C  0.33310870  0.68615700  0.07243245    -0.18200
C1335       C  0.34742049  0.79534099  0.06843034    -0.18200
C1336       C  0.34783001  0.78958864  0.43422170    -0.18200
H1337       H  0.30683083  0.62929378  0.47404763     0.14700
H1338       H  0.31244717  0.62956913  0.04258901     0.14700
H1339       H  0.37697964  0.84450371  0.46284482     0.14700
H1340       H  0.37987955  0.84400339  0.03707131     0.14700
H1341       H  0.29987424  0.71006172  0.37857327     0.13000
H1342       H  0.31417315  0.76577188  0.37247141     0.13000
H1343       H  0.29888351  0.71804318  0.12565016     0.13000
H1344       H  0.30997086  0.77631789  0.12657594     0.13000
H1345       H  0.34497490  0.71330164  0.00489441     0.26300
H1346       H  0.33175342  0.76556601  0.00378011     0.26300
N1347       N  0.29745896  0.82886183  0.24684418    -0.36500
N1348       N  0.25623850  0.84052698  0.30458819    -0.57000
N1349       N  0.21128284  0.85309832  0.25080744    -0.36500
N1350       N  0.25217585  0.84154888  0.19223218    -0.57000
C1351       C  0.31352338  0.81959848  0.27588880     0.27100
C1352       C  0.31204967  0.82179106  0.21631203     0.27100
C1353       C  0.19798290  0.86330590  0.28105672     0.27100
C1354       C  0.19372693  0.85874214  0.22183413     0.27100
C1355       C  0.27510907  0.82207613  0.32124961     0.35700
C1356       C  0.23278111  0.84269227  0.32625695     0.35700
C1357       C  0.27352859  0.83197943  0.16995163     0.35700
C1358       C  0.22660040  0.84086879  0.17277649     0.35700
C1359       C  0.33815864  0.80577712  0.26377075    -0.21800
C1360       C  0.33690667  0.80635034  0.22645564    -0.21800
C1361       C  0.17151758  0.87551312  0.27087539    -0.21800
C1362       C  0.16868004  0.87234574  0.23394445    -0.21800
C1363       C  0.26220503  0.81087036  0.35197704    -0.22800
C1364       C  0.23730979  0.82640503  0.35723238    -0.22800
C1365       C  0.26086544  0.82387442  0.13689963    -0.22800
C1366       C  0.23191447  0.83101080  0.13805843    -0.22800
C1367       C  0.30540243  0.82096575  0.31295464    -0.18200
C1368       C  0.30382345  0.82934901  0.17975020    -0.18200
C1369       C  0.19867847  0.84969726  0.18532506    -0.18200
C1370       C  0.20673897  0.85765091  0.31760694    -0.18200
H1371       H  0.35446348  0.79514842  0.28031643     0.14700
H1372       H  0.35260931  0.79631226  0.20887511     0.14700
H1373       H  0.15454109  0.88349816  0.28820132     0.14700
H1374       H  0.14947834  0.87823651  0.21844424     0.14700
H1375       H  0.26872337  0.79210034  0.36801060     0.13000
H1376       H  0.22396107  0.82494990  0.38090911     0.13000
H1377       H  0.26985755  0.81078384  0.11543009     0.13000
H1378       H  0.21655867  0.82813678  0.11583887     0.13000
H1379       H  0.27936455  0.84232213  0.24789713     0.26300
H1380       H  0.22918406  0.83936114  0.25010092     0.26300
C1381       C  0.14609475  0.88709328  0.37965950     0.86600
C1382       C  0.15695554  0.86923398  0.41373851    -0.53600
C1383       C  0.16898542  0.84134567  0.40661705     0.09500
C1384       C  0.16920897  0.83551051  0.36529223     0.20500
C1385       C  0.17369305  0.88902347  0.35588304    -0.54400
C1386       C  0.18488718  0.86202924  0.34714464     0.09600
C1387       C  0.12539406  0.86389628  0.36043259    -0.53900
C1388       C  0.13748314  0.83701391  0.35381489     0.10200
H1389       H  0.15233109  0.87682525  0.44087588     0.14700
H1390       H  0.17790356  0.81468934  0.35566438     0.00500
H1391       H  0.18423934  0.90899614  0.34593468     0.15000
H1392       H  0.10199747  0.86713664  0.35672139     0.14800
C1393       C  0.13345038  0.87249240  0.12334181     0.86600
C1394       C  0.16021827  0.87629018  0.14916509    -0.53600
C1395       C  0.17337332  0.85037476  0.15851634     0.09500
C1396       C  0.15924137  0.82234641  0.13953735     0.20500
C1397       C  0.14574164  0.85545640  0.09027372    -0.54400
C1398       C  0.16037176  0.82932711  0.09819893     0.09600
C1399       C  0.11347194  0.84835964  0.14013073    -0.53900
C1400       C  0.12644430  0.82249766  0.14885295     0.10200
H1401       H  0.16771260  0.89796324  0.15998786     0.14700
H1402       H  0.16886466  0.80164338  0.14922038     0.00500
H1403       H  0.14110783  0.86148144  0.06286388     0.15000
H1404       H  0.09041987  0.85178136  0.14557837     0.14800
C1405       C  0.35909522  0.61762098  0.13086726     0.86600
C1406       C  0.33162011  0.61730932  0.15510551    -0.53600
C1407       C  0.32066975  0.64492936  0.16239660     0.09500
C1408       C  0.33811022  0.67061122  0.14424037     0.20500
C1409       C  0.35018808  0.63538816  0.09670166    -0.54400
C1410       C  0.33819970  0.66331004  0.10289078     0.09600
C1411       C  0.38095118  0.63996728  0.14873932    -0.53900
C1412       C  0.37014151  0.66704181  0.15658613     0.10200
H1413       H  0.32253967  0.59696210  0.16697172     0.14700
H1414       H  0.33045378  0.69252312  0.15294200     0.00500
H1415       H  0.35761565  0.62898627  0.07038803     0.15000
H1416       H  0.40380107  0.63493281  0.15416192     0.14800
C1417       C  0.35170463  0.60951224  0.38023361     0.86600
C1418       C  0.34256402  0.62757827  0.41480003    -0.53600
C1419       C  0.33582663  0.65767967  0.40902792     0.09500
C1420       C  0.34036688  0.66579016  0.36849276     0.20500
C1421       C  0.32578607  0.61450093  0.35355571    -0.54400
C1422       C  0.31937437  0.64373205  0.34724936     0.09600
C1423       C  0.37735285  0.62842363  0.36735940    -0.53900
C1424       C  0.37247966  0.65730317  0.36117312     0.10200
H1425       H  0.34384895  0.61778599  0.44121516     0.14700
H1426       H  0.33792867  0.68889329  0.35956268     0.00500
H1427       H  0.31263091  0.59657824  0.34123811     0.15000
H1428       H  0.39934543  0.62027980  0.37000747     0.14800
N1429       N  0.03422195  0.73040010  0.28301470    -0.36500
N1430       N  0.00171320  0.74059958  0.35189221    -0.57000
N1431       N  0.45038059  0.77663810  0.28252915    -0.36500
N1432       N  0.99362565  0.74909517  0.22684594    -0.57000
C1433       C  0.05133396  0.72211057  0.31120993     0.27100
C1434       C  0.04915311  0.72516134  0.25257107     0.27100
C1435       C  0.43574165  0.76962312  0.31300193     0.27100
C1436       C  0.43157433  0.77089437  0.25443152     0.27100
C1437       C  0.02815643  0.75496554  0.35301603     0.35700
C1438       C  0.47949060  0.76279408  0.35049585     0.35700
C1439       C  0.01834744  0.75044104  0.20762263     0.35700
C1440       C  0.46954682  0.76658308  0.20925964     0.35700
C1441       C  0.07415433  0.70553556  0.29809890    -0.21800
C1442       C  0.07356494  0.70868189  0.26089347    -0.21800
C1443       C  0.40632209  0.76385833  0.30440869    -0.21800
C1444       C  0.40377203  0.76447546  0.26735104    -0.21800
C1445       C  0.02480617  0.78585318  0.35280545    -0.22800
C1446       C  0.49324221  0.79075442  0.35091478    -0.22800
C1447       C  0.01322468  0.76335113  0.17417721    -0.22800
C1448       C  0.48019360  0.77814033  0.17735814    -0.22800
C1449       C  0.05400198  0.74105386  0.34220126    -0.18200
C1450       C  0.04590724  0.74278490  0.22138287    -0.18200
C1451       C  0.44020289  0.76447515  0.21864968    -0.18200
C1452       C  0.44982236  0.75692171  0.34321027    -0.18200
H1453       H  0.09304229  0.69911149  0.31368294     0.14700
H1454       H  0.09133157  0.70362392  0.24300091     0.14700
H1455       H  0.38949278  0.75554255  0.32240516     0.14700
H1456       H  0.38457909  0.75717224  0.25162811     0.14700
H1457       H  0.04181991  0.80311369  0.35034336     0.13000
H1458       H  0.48304660  0.81222043  0.34799393     0.13000
H1459       H  0.02878601  0.76733380  0.15282682     0.13000
H1460       H  0.46820635  0.78965558  0.15647981     0.13000
H1461       H  0.01785942  0.74610227  0.28494618     0.26300
H1462       H  0.47306568  0.77978451  0.28083178     0.26300
N1463       N  0.19681854  0.66193186  0.25079235    -0.36500
N1464       N  0.24121297  0.65799476  0.30864682    -0.57000
N1465       N  0.28705155  0.65101012  0.25434019    -0.36500
N1466       N  0.24373589  0.65813482  0.19563166    -0.57000
C1467       C  0.18165225  0.67384901  0.27865248     0.27100
C1468       C  0.18295900  0.66917041  0.21925449     0.27100
C1469       C  0.30381670  0.65665940  0.28429423     0.27100
C1470       C  0.30390808  0.65770024  0.22543354     0.27100
C1471       C  0.21837175  0.66772115  0.32890283     0.35700
C1472       C  0.26550339  0.65632567  0.33090836     0.35700
C1473       C  0.21909789  0.64793983  0.17784210     0.35700
C1474       C  0.26675772  0.64534230  0.17892648     0.35700
C1475       C  0.15866407  0.68995957  0.26435776    -0.21800
C1476       C  0.15937612  0.68689834  0.22712224    -0.21800
C1477       C  0.33118446  0.66768714  0.27450300    -0.21800
C1478       C  0.33087656  0.66897774  0.23740128    -0.21800
C1479       C  0.23010623  0.67560333  0.36275356    -0.22800
C1480       C  0.25845083  0.66606119  0.36487561    -0.22800
C1481       C  0.22690325  0.62766561  0.15156240    -0.22800
C1482       C  0.25692985  0.62687569  0.15099781    -0.22800
C1483       C  0.18786890  0.67051831  0.31655827    -0.18200
C1484       C  0.19011022  0.65799653  0.18415429    -0.18200
C1485       C  0.29649236  0.65009782  0.18917397    -0.18200
C1486       C  0.29524909  0.65197048  0.32023579    -0.18200
H1487       H  0.14324794  0.70313461  0.27920581     0.14700
H1488       H  0.14430671  0.69680329  0.20806597     0.14700
H1489       H  0.34912928  0.67507792  0.29220308     0.14700
H1490       H  0.34825678  0.67790765  0.22123168     0.14700
H1491       H  0.22205107  0.69149250  0.38193119     0.13000
H1492       H  0.27327023  0.66964246  0.38764808     0.13000
H1493       H  0.21253928  0.61295152  0.13670482     0.13000
H1494       H  0.26981422  0.61273041  0.13383915     0.13000
H1495       H  0.21367977  0.64678476  0.25305248     0.26300
H1496       H  0.26666617  0.63978263  0.25365835     0.26300
C1497       C  0.39755146  0.70304182  0.38659691    -0.05700
C1498       C  0.39787021  0.67917444  0.36151971     0.00300
C1499       C  0.42275545  0.67677601  0.33875935    -0.08300
C1500       C  0.44038918  0.70265946  0.33396596    -0.05700
C1501       C  0.43696282  0.72814835  0.35558515     0.00300
C1502       C  0.41812363  0.72687428  0.38516309    -0.08200
C1503       C  0.41963442  0.75112745  0.41387080     0.62200
H1504       H  0.38128919  0.70295794  0.40735868     0.12900
H1505       H  0.45704193  0.70335831  0.31337499     0.12900
C1506       C  0.43330353  0.64741065  0.32277395     0.62400
F1507       F  0.41187241  0.77764950  0.39843403    -0.22800
F1508       F  0.44800556  0.75421729  0.42753408    -0.20100
F1509       F  0.40121599  0.74486071  0.44236195    -0.19800
F1510       F  0.41069545  0.63061390  0.30657222    -0.19800
F1511       F  0.44604510  0.63090886  0.35000839    -0.20100
F1512       F  0.45455661  0.65242158  0.29700634    -0.22800
C1513       C  0.38831939  0.71942070  0.15585619    -0.05700
C1514       C  0.38880069  0.69142237  0.17252166     0.00300
C1515       C  0.40747256  0.68745614  0.20298362    -0.08300
C1516       C  0.42572613  0.71146515  0.21453644    -0.05700
C1517       C  0.42345758  0.74005459  0.19968602     0.00300
C1518       C  0.40466805  0.74414219  0.16971295    -0.08200
C1519       C  0.40054169  0.77358248  0.15138051     0.62200
H1520       H  0.37462071  0.72224918  0.13204891     0.12900
H1521       H  0.44030478  0.70855257  0.23769942     0.12900
C1522       C  0.40717710  0.66043438  0.22742674     0.62400
F1523       F  0.37097799  0.77914541  0.15078907    -0.22800
F1524       F  0.41040996  0.77119459  0.11630434    -0.20100
F1525       F  0.41501883  0.79751659  0.16850456    -0.19800
F1526       F  0.43402094  0.64685881  0.22606748    -0.19800
F1527       F  0.38538118  0.63913186  0.21989156    -0.20100
F1528       F  0.40252252  0.67087473  0.26199811    -0.22800
C1529       C  0.08470157  0.75067271  0.17667622    -0.05700
C1530       C  0.07126983  0.76078343  0.20796395     0.00300
C1531       C  0.07674379  0.79089695  0.22001671    -0.08300
C1532       C  0.09782836  0.80850154  0.20200395    -0.05700
C1533       C  0.10978415  0.79912478  0.16921717     0.00300
C1534       C  0.10109603  0.77045794  0.15505053    -0.08200
C1535       C  0.10458166  0.76051632  0.11634230     0.62200
H1536       H  0.07851662  0.72854905  0.16618637     0.12900
H1537       H  0.10292963  0.83117870  0.21134876     0.12900
C1538       C  0.05819630  0.80597198  0.24852800     0.62400
F1539       F  0.07735758  0.75235121  0.10160488    -0.22800
F1540       F  0.12194089  0.73587348  0.11604014    -0.20100
F1541       F  0.11646814  0.78246520  0.09476773    -0.19800
F1542       F  0.05650953  0.78897475  0.27917127    -0.19800
F1543       F  0.03013455  0.80977549  0.23505541    -0.20100
F1544       F  0.06964134  0.83395317  0.25864781    -0.22800
C1545       C  0.10552402  0.79953122  0.38324788    -0.05700
C1546       C  0.11986953  0.80909560  0.35190290     0.00300
C1547       C  0.11985075  0.79050983  0.32110482    -0.08300
C1548       C  0.10095277  0.76541570  0.32045607    -0.05700
C1549       C  0.08264126  0.75789264  0.34983674     0.00300
C1550       C  0.08781993  0.77333785  0.38322231    -0.08200
C1551       C  0.07398906  0.76427909  0.41873916     0.62200
H1552       H  0.10798683  0.81280874  0.40791251     0.12900
H1553       H  0.09816007  0.75449389  0.29475208     0.12900
C1554       C  0.13757201  0.79847583  0.28778976     0.62400
F1555       F  0.09575811  0.76072105  0.44464103    -0.22800
F1556       F  0.05799029  0.73759160  0.41614134    -0.20100
F1557       F  0.05574918  0.78653328  0.43032169    -0.19800
F1558       F  0.16718236  0.79984099  0.29609353    -0.19800
F1559       F  0.12911891  0.82593477  0.27512202    -0.20100
F1560       F  0.13352314  0.77750064  0.26018847    -0.22800
C1561       C  0.20519545  0.61399366  0.40313079    -0.05700
C1562       C  0.17771838  0.60985417  0.38554772     0.00300
C1563       C  0.17321579  0.58441386  0.36140433    -0.08300
C1564       C  0.19275980  0.56126525  0.36403838    -0.05700
C1565       C  0.21707527  0.56402998  0.38650460     0.00300
C1566       C  0.22596127  0.59175387  0.40170772    -0.08200
C1567       C  0.25697064  0.59676684  0.41645210     0.62200
H1568       H  0.21010371  0.63396894  0.41914702     0.12900
H1569       H  0.18765614  0.53960304  0.35150767     0.12900
C1570       C  0.14887022  0.57974008  0.33304851     0.62400
F1571       F  0.27646340  0.58964237  0.38988113    -0.22800
F1572       F  0.26223148  0.57872440  0.44567148    -0.20100
F1573       F  0.26244680  0.62620749  0.42694974    -0.19800
F1574       F  0.15561988  0.55777262  0.30800103    -0.19800
F1575       F  0.14525139  0.60538860  0.31356098    -0.20100
F1576       F  0.12306640  0.57046161  0.34895054    -0.22800
C1577       C  0.20349867  0.61269305  0.05976511    -0.05700
C1578       C  0.18265788  0.60181171  0.08377578     0.00300
C1579       C  0.18351403  0.57121902  0.09515306    -0.08300
C1580       C  0.20323088  0.55225030  0.07820639    -0.05700
C1581       C  0.22372549  0.56344552  0.05378629     0.00300
C1582       C  0.22516914  0.59448920  0.04647895    -0.08200
C1583       C  0.24898770  0.60995698  0.02524983     0.62200
H1584       H  0.20355724  0.63611051  0.05211680     0.12900
H1585       H  0.20236948  0.52836446  0.08336103     0.12900
C1586       C  0.16507283  0.55791485  0.12536258     0.62400
F1587       F  0.26015992  0.63391436  0.04567871    -0.22800
F1588       F  0.23698157  0.62083161  0.99364997    -0.20100
F1589       F  0.27180005  0.59143681  0.01724630    -0.19800
F1590       F  0.13812980  0.54786803  0.11159292    -0.19800
F1591       F  0.16116958  0.57856380  0.15286711    -0.20100
F1592       F  0.17872489  0.53368038  0.14075612    -0.22800
C1593       C  0.29829528  0.93487210  0.05062894    -0.05700
C1594       C  0.32360274  0.94774611  0.03454562     0.00300
C1595       C  0.34947668  0.93119794  0.03360103    -0.08300
C1596       C  0.34873035  0.90231132  0.04789036    -0.05700
C1597       C  0.32557876  0.89184746  0.06990261     0.00300
C1598       C  0.29928178  0.90775146  0.06990659    -0.08200
C1599       C  0.27282750  0.89658404  0.09068544     0.62200
H1600       H  0.27810362  0.94702299  0.04966278     0.12900
H1601       H  0.36873168  0.89004502  0.04773272     0.12900
C1602       C  0.37883246  0.94491278  0.02188605     0.62400
F1603       F  0.25014788  0.91653075  0.08918408    -0.22800
F1604       F  0.28034003  0.89266393  0.12669101    -0.20100
F1605       F  0.26275062  0.86958549  0.07584125    -0.19800
F1606       F  0.38241307  0.97390923  0.03523004    -0.19800
F1607       F  0.38033980  0.94515613  0.98460373    -0.20100
F1608       F  0.40221753  0.92886591  0.03498410    -0.22800
C1609       C  0.28698065  0.88503413  0.36408024    -0.05700
C1610       C  0.29340980  0.87156528  0.39718103     0.00300
C1611       C  0.28424964  0.88524163  0.42923060    -0.08300
C1612       C  0.27807504  0.91579312  0.42785837    -0.05700
C1613       C  0.28347971  0.93153858  0.39566800     0.00300
C1614       C  0.28122346  0.91531395  0.36265209    -0.08200
C1615       C  0.27573961  0.92957110  0.32605640     0.62200
H1616       H  0.29375888  0.87466669  0.33941527     0.12900
H1617       H  0.27316503  0.92777953  0.45257113     0.12900
C1618       C  0.28574280  0.86948829  0.46517655     0.62400
F1619       F  0.27229048  0.90821008  0.29874478    -0.22800
F1620       F  0.29902807  0.94845628  0.31728928    -0.20100
F1621       F  0.25011572  0.94539704  0.32695611    -0.19800
F1622       F  0.30891553  0.88147857  0.48565034    -0.19800
F1623       F  0.28967134  0.83903537  0.46061197    -0.20100
F1624       F  0.25991257  0.87327531  0.48355269    -0.22800
C1625       C  0.08525025  0.94052327  0.09502166    -0.05700
C1626       C  0.07231435  0.94718285  0.12855114     0.00300
C1627       C  0.08381202  0.93321584  0.15998139    -0.08300
C1628       C  0.10501612  0.91124481  0.15579404    -0.05700
C1629       C  0.11576411  0.90194127  0.12188786     0.00300
C1630       C  0.10764461  0.91924248  0.09124798    -0.08200
C1631       C  0.12277557  0.91733279  0.05514736     0.62200
H1632       H  0.07757645  0.95213197  0.07123630     0.12900
H1633       H  0.11235850  0.89948271  0.17956220     0.12900
C1634       C  0.07346197  0.94014782  0.19809245     0.62400
F1635       F  0.11960633  0.94343720  0.03567640    -0.22800
F1636       F  0.11048999  0.89393789  0.03470064    -0.20100
F1637       F  0.15259983  0.91379224  0.06030792    -0.19800
F1638       F  0.04394218  0.93256684  0.20089673    -0.19800
F1639       F  0.07825040  0.97029880  0.20587885    -0.20100
F1640       F  0.08837900  0.92428874  0.22427369    -0.22800
C1641       C  0.05218393  0.59799584  0.15723246    -0.05700
C1642       C  0.04501435  0.58256163  0.12446809     0.00300
C1643       C  0.05387310  0.59615389  0.09148851    -0.08300
C1644       C  0.07325832  0.62135028  0.09327734    -0.05700
C1645       C  0.08587052  0.63176891  0.12638919     0.00300
C1646       C  0.07115477  0.62355424  0.15831878    -0.08200
C1647       C  0.07165500  0.64313330  0.19197931     0.62200
H1648       H  0.04269141  0.59033266  0.18233522     0.12900
H1649       H  0.08256316  0.62991127  0.06852374     0.12900
C1650       C  0.04482407  0.58355626  0.05442924     0.62400
F1651       F  0.04321014  0.64731537  0.20315230    -0.22800
F1652       F  0.08402218  0.67116423  0.18523439    -0.20100
F1653       F  0.08696833  0.62955451  0.21962226    -0.19800
F1654       F  0.01453566  0.58177098  0.05132323    -0.19800
F1655       F  0.05626121  0.55543373  0.04969888    -0.20100
F1656       F  0.05499424  0.60144434  0.02661098    -0.22800
C1657       C  0.40663019  0.55153552  0.09953863    -0.05700
C1658       C  0.42126559  0.54524574  0.13253721     0.00300
C1659       C  0.40897731  0.55655392  0.16501147    -0.08300
C1660       C  0.38569901  0.57661334  0.16247803    -0.05700
C1661       C  0.37440393  0.58682614  0.12914132     0.00300
C1662       C  0.38235704  0.57070934  0.09756788    -0.08200
C1663       C  0.36422720  0.57011071  0.06286229     0.62200
H1664       H  0.41393604  0.54103495  0.07483488     0.12900
H1665       H  0.37785194  0.58695594  0.18693788     0.12900
C1666       C  0.42061427  0.54883704  0.20253473     0.62400
F1667       F  0.36260476  0.54127984  0.04873451    -0.22800
F1668       F  0.37722708  0.58863402  0.03757664    -0.20100
F1669       F  0.33572789  0.57847881  0.06892081    -0.19800
F1670       F  0.44892049  0.56039153  0.20735857    -0.19800
F1671       F  0.42011409  0.51803530  0.20674743    -0.20100
F1672       F  0.40385927  0.56074658  0.22970810    -0.22800
C1673       C  0.43025804  0.92079697  0.17022667    -0.05700
C1674       C  0.45035499  0.92145098  0.14204956     0.00300
C1675       C  0.45146687  0.89624047  0.11873884    -0.08300
C1676       C  0.43007792  0.87286458  0.12205721    -0.05700
C1677       C  0.40708579  0.87355711  0.14760723     0.00300
C1678       C  0.40865011  0.89773581  0.17379318    -0.08200
C1679       C  0.38758095  0.90069158  0.20522486     0.62200
H1680       H  0.43068128  0.93980143  0.18866010     0.12900
H1681       H  0.43003351  0.85544327  0.10179165     0.12900
C1682       C  0.47497821  0.89396972  0.09019000     0.62400
F1683       F  0.39062264  0.87671854  0.22824607    -0.22800
F1684       F  0.35891868  0.90234605  0.19284101    -0.20100
F1685       F  0.39339640  0.92635434  0.22577556    -0.19800
F1686       F  0.50236513  0.89967571  0.10589777    -0.19800
F1687       F  0.47017161  0.91443955  0.06304239    -0.20100
F1688       F  0.47510614  0.86569502  0.07442233    -0.22800
C1689       C  0.07813439  0.61496403  0.32899696    -0.05700
C1690       C  0.07961057  0.63622908  0.35767649     0.00300
C1691       C  0.05833186  0.63146744  0.38565312    -0.08300
C1692       C  0.04266979  0.60365806  0.38797596    -0.05700
C1693       C  0.04439884  0.58101832  0.36179520     0.00300
C1694       C  0.06117302  0.58765780  0.33034009    -0.08200
C1695       C  0.06296396  0.56542923  0.29900831     0.62200
H1696       H  0.09252028  0.61852576  0.30648945     0.12900
H1697       H  0.02839660  0.59949182  0.41064495     0.12900
C1698       C  0.04939718  0.65604144  0.41147519     0.62400
F1699       F  0.08277617  0.57492787  0.27319530    -0.22800
F1700       F  0.03577909  0.56195268  0.28208191    -0.20100
F1701       F  0.07194533  0.53801826  0.31160962    -0.19800
F1702       F  0.04542562  0.68211634  0.39241251    -0.19800
F1703       F  0.07017259  0.66032093  0.43870921    -0.20100
F1704       F  0.02293078  0.64912001  0.42783106    -0.22800
C1705       C  0.09733712  0.95548787  0.35975718    -0.05700
C1706       C  0.07535621  0.95134650  0.38536767     0.00300
C1707       C  0.08135679  0.93173455  0.41471603    -0.08300
C1708       C  0.10597741  0.91319240  0.41309031    -0.05700
C1709       C  0.12764440  0.91586903  0.38632073     0.00300
C1710       C  0.12430944  0.94034833  0.36144492    -0.08200
C1711       C  0.14926512  0.95384879  0.33955591     0.62200
H1712       H  0.09373145  0.97198288  0.33895535     0.12900
H1713       H  0.10764261  0.89529344  0.43237795     0.12900
C1714       C  0.06197421  0.92961145  0.44769619     0.62400
F1715       F  0.14296242  0.98224395  0.32728549    -0.22800
F1716       F  0.15426997  0.93634296  0.30944510    -0.20100
F1717       F  0.17426840  0.95721319  0.36114712    -0.19800
F1718       F  0.07116805  0.90811562  0.47183193    -0.19800
F1719       F  0.03356214  0.92217342  0.43719026    -0.20100
F1720       F  0.06270558  0.95683323  0.46593679    -0.22800
C1721       C  0.42452088  0.87122443  0.38259752    -0.05700
C1722       C  0.39661299  0.87790242  0.36762279     0.00300
C1723       C  0.39311464  0.90793113  0.35475604    -0.08300
C1724       C  0.41535454  0.92975692  0.36212329    -0.05700
C1725       C  0.44140114  0.92350383  0.38065961     0.00300
C1726       C  0.44648722  0.89357661  0.39030620    -0.08200
C1727       C  0.47488697  0.88541735  0.40891175     0.62200
H1728       H  0.42945002  0.84841424  0.38881869     0.12900
H1729       H  0.41228103  0.95254962  0.35304584     0.12900
C1730       C  0.36668930  0.91987737  0.33426556     0.62400
F1731       F  0.47721720  0.90039922  0.44179550    -0.22800
F1732       F  0.49831339  0.89357217  0.38743759    -0.20100
F1733       F  0.47615085  0.85497696  0.41546802    -0.19800
F1734       F  0.35393281  0.94164143  0.35523485    -0.19800
F1735       F  0.34545049  0.89865720  0.32488029    -0.20100
F1736       F  0.37610658  0.93294156  0.30252533    -0.22800
C1737       C  0.40143558  0.54650187  0.35136769    -0.05700
C1738       C  0.41744205  0.54213743  0.38346364     0.00300
C1739       C  0.40415637  0.55157228  0.41646794    -0.08300
C1740       C  0.37862746  0.56917718  0.41501465    -0.05700
C1741       C  0.36490234  0.57741932  0.38222117     0.00300
C1742       C  0.37506903  0.56263007  0.35007122    -0.08200
C1743       C  0.35894959  0.56384045  0.31374252     0.62200
H1744       H  0.41023184  0.53758021  0.32661627     0.12900
H1745       H  0.37081137  0.57864227  0.43985059     0.12900
C1746       C  0.41675998  0.54400327  0.45355087     0.62400
F1747       F  0.37134115  0.54562625  0.28800565    -0.22800
F1748       F  0.35953319  0.59263955  0.30032847    -0.20100
F1749       F  0.33036590  0.55344343  0.31759754    -0.19800
F1750       F  0.44377285  0.55845564  0.45885984    -0.19800
F1751       F  0.41961788  0.51331682  0.45625294    -0.20100
F1752       F  0.39879602  0.55282775  0.48129898    -0.22800
O1753       O  0.02163100  0.53572584  0.84116026    -0.72800
O1754       O  0.47321940  0.95929103  0.85178110    -0.73800
O1755       O  0.45822998  0.52014499  0.84724453    -0.62400
O1756       O  0.03377564  0.97311896  0.84974236    -0.70800
O1757       O  0.03716173  0.98041805  0.90889231    -0.70400
O1758       O  0.46153066  0.52316302  0.90660224    -0.61600
O1759       O  0.47448613  0.96154768  0.91170136    -0.74100
O1760       O  0.02429277  0.54226080  0.90031415    -0.72900
Cu1761     Cu  0.49646359  0.99699107  0.84706787     1.04600
Cu1762     Cu  0.00059718  0.50249692  0.90865258     1.04300
C1763       C  0.03039046  0.55148406  0.86824877     0.93400
C1764       C  0.46547649  0.94865405  0.88204208     0.92500
C1765       C  0.44706085  0.52794489  0.87768025     0.84700
C1766       C  0.04651382  0.96796045  0.88033652     0.90900
O1767       O  0.03944231  0.97935465  0.65855904    -0.72800
O1768       O  0.46334926  0.52396055  0.66195445    -0.73800
O1769       O  0.47918889  0.96218924  0.66463427    -0.62400
O1770       O  0.02293955  0.54206683  0.65435693    -0.70800
O1771       O  0.02011041  0.53962334  0.59480839    -0.70400
O1772       O  0.47528923  0.95839466  0.60493359    -0.61600
O1773       O  0.46048872  0.52116529  0.60250282    -0.74100
O1774       O  0.03586591  0.97635096  0.59907657    -0.72900
Cu1775     Cu  0.50153247  0.00114473  0.66271111     1.04600
Cu1776     Cu  0.99813511  0.99962498  0.59936996     1.04300
C1777       C  0.04914686  0.96959617  0.62854135     0.93400
C1778       C  0.44978736  0.52995928  0.63249708     0.92500
C1779       C  0.47021486  0.94781473  0.63639602     0.84700
C1780       C  0.02862285  0.55362443  0.62375519     0.90900
N1781       N  0.16983885  0.80543392  0.50104000    -0.36500
N1782       N  0.16539031  0.75621692  0.55520398    -0.57000
N1783       N  0.15446908  0.71345024  0.49791204    -0.36500
N1784       N  0.15777466  0.76079989  0.94299798    -0.57000
C1785       C  0.17637232  0.82084609  0.53204792     0.27100
C1786       C  0.17482844  0.82238570  0.97306014     0.27100
C1787       C  0.14834500  0.69607591  0.52707150     0.27100
C1788       C  0.14542037  0.69682741  0.96838337     0.27100
C1789       C  0.17697902  0.77907284  0.57555589     0.35700
C1790       C  0.17063373  0.73046749  0.57312431     0.35700
C1791       C  0.17203671  0.78322967  0.92507512     0.35700
C1792       C  0.16108423  0.73518901  0.92353785     0.35700
C1793       C  0.18771647  0.84898469  0.52338424    -0.21800
C1794       C  0.18457811  0.85006480  0.98672453    -0.21800
C1795       C  0.13360567  0.67007036  0.51527927    -0.21800
C1796       C  0.13289385  0.66946376  0.97834514    -0.21800
C1797       C  0.19116521  0.76733786  0.60556749    -0.22800
C1798       C  0.18632257  0.73677070  0.60463092    -0.22800
C1799       C  0.18599375  0.77060702  0.89573078    -0.22800
C1800       C  0.17757662  0.74100840  0.89347985    -0.22800
C1801       C  0.17291802  0.81000031  0.56799485    -0.18200
C1802       C  0.17229063  0.81449806  0.93530547    -0.18200
C1803       C  0.14927446  0.70655462  0.93214593    -0.18200
C1804       C  0.15789066  0.70221053  0.56342062    -0.18200
H1805       H  0.19634293  0.86605225  0.54201919     0.14700
H1806       H  0.19232825  0.86927185  0.97158810     0.14700
H1807       H  0.12681386  0.65103974  0.53133151     0.14700
H1808       H  0.12345731  0.65217073  0.96067045     0.14700
H1809       H  0.20461371  0.77896609  0.62572321     0.13000
H1810       H  0.19371643  0.72104100  0.62467103     0.13000
H1811       H  0.20298402  0.77997227  0.87926748     0.13000
H1812       H  0.18469536  0.72523748  0.87335686     0.13000
H1813       H  0.15944013  0.78448318  0.49995608     0.26300
H1814       H  0.16829047  0.73239874  0.49757605     0.26300
C1815       C  0.37143951  0.85565409  0.87490805     0.86600
C1816       C  0.37468404  0.82914239  0.90076690    -0.53600
C1817       C  0.34919079  0.81339837  0.90716267     0.09500
C1818       C  0.32256212  0.82557247  0.88648867     0.20500
C1819       C  0.35677588  0.84099828  0.84022331    -0.54400
C1820       C  0.33001360  0.82606390  0.84520650     0.09600
C1821       C  0.34745408  0.87347774  0.89306079    -0.53900
C1822       C  0.32160818  0.85829467  0.89766647     0.10200
H1823       H  0.39431145  0.82466639  0.91620366     0.14700
H1824       H  0.30303419  0.81398478  0.89638934     0.00500
H1825       H  0.36540450  0.84557587  0.81359793     0.15000
H1826       H  0.34951439  0.89747184  0.89825537     0.14800
C1827       C  0.37976224  0.85753462  0.63528445     0.86600
C1828       C  0.35890295  0.84485347  0.66379396    -0.53600
C1829       C  0.33077943  0.83671728  0.65211882     0.09500
C1830       C  0.32773305  0.84096020  0.60955206     0.20500
C1831       C  0.37986360  0.83248527  0.60568522    -0.54400
C1832       C  0.35273226  0.82267510  0.59330446     0.09600
C1833       C  0.36279447  0.88232625  0.61810540    -0.53900
C1834       C  0.33690054  0.87416485  0.60208309     0.10200
H1835       H  0.36584161  0.84438677  0.69151873     0.14700
H1836       H  0.30688640  0.83522508  0.59595372     0.00500
H1837       H  0.39929893  0.82264806  0.59511707     0.15000
H1838       H  0.37254299  0.90471221  0.61483278     0.14800
C1839       C  0.11889661  0.64407885  0.62458050     0.86600
C1840       C  0.13873250  0.65007261  0.65886697    -0.53600
C1841       C  0.16762986  0.65824219  0.65222109     0.09500
C1842       C  0.17366619  0.65882018  0.61075038     0.20500
C1843       C  0.12270633  0.67226703  0.60135153    -0.54400
C1844       C  0.15107439  0.67970918  0.59281339     0.09600
C1845       C  0.13548216  0.62003085  0.60435412    -0.53900
C1846       C  0.16381360  0.62688272  0.59797338     0.10200
H1847       H  0.13198672  0.64504121  0.68594649     0.14700
H1848       H  0.19657752  0.66518086  0.60385023     0.00500
H1849       H  0.10416166  0.68377179  0.58976581     0.15000
H1850       H  0.12541954  0.59880211  0.59561512     0.14800
C1851       C  0.11166888  0.65123859  0.86478858     0.86600
C1852       C  0.11449925  0.67841189  0.89027561    -0.53600
C1853       C  0.14242332  0.68487185  0.90172022     0.09500
C1854       C  0.16560642  0.66538634  0.88369215     0.20500
C1855       C  0.13270005  0.66063289  0.83249498    -0.54400
C1856       C  0.16203138  0.66837112  0.84217430     0.09600
C1857       C  0.12824273  0.62663370  0.88425694    -0.53900
C1858       C  0.15695135  0.63258225  0.88994324     0.10200
H1859       H  0.09665524  0.69196963  0.89875506     0.14700
H1860       H  0.18621193  0.67062403  0.89718734     0.00500
H1861       H  0.12541816  0.65819876  0.80462242     0.15000
H1862       H  0.11845893  0.60489010  0.89012463     0.14800
N1863       N  0.32167637  0.96096407  0.45425868    -0.36500
N1864       N  0.25966743  0.49555308  0.90074368    -0.57000
N1865       N  0.23484516  0.52637611  0.46694953    -0.36500
N1866       N  0.27990281  0.51369439  0.51770773    -0.57000
C1867       C  0.32225920  0.97865324  0.92556205     0.27100
C1868       C  0.32632004  0.98255907  0.47957418     0.27100
C1869       C  0.21959263  0.53260886  0.93688780     0.27100
C1870       C  0.22283035  0.53723852  0.49753861     0.27100
C1871       C  0.28559192  0.98862449  0.88108435     0.35700
C1872       C  0.25180948  0.52150829  0.88661283     0.35700
C1873       C  0.30284802  0.99941991  0.53352776     0.35700
C1874       C  0.26382241  0.52877733  0.54122549     0.35700
C1875       C  0.32893459  0.00895570  0.93196938    -0.21800
C1876       C  0.32821151  0.01034058  0.46326374    -0.21800
C1877       C  0.19332872  0.54322560  0.94943487    -0.21800
C1878       C  0.19485344  0.54713073  0.48960424    -0.21800
C1879       C  0.29402934  0.01044140  0.85671661    -0.22800
C1880       C  0.27022097  0.53034076  0.85891550    -0.22800
C1881       C  0.30075551  0.00591566  0.57008942    -0.22800
C1882       C  0.27577985  0.52631567  0.57584011    -0.22800
C1883       C  0.30364227  0.96797991  0.89646233    -0.18200
C1884       C  0.32040407  0.97819863  0.51652790    -0.18200
C1885       C  0.23766885  0.54270340  0.53116982    -0.18200
C1886       C  0.23010299  0.53813022  0.90188699    -0.18200
H1887       H  0.32638178  0.02738676  0.91353440     0.14700
H1888       H  0.33056159  0.03201594  0.47659394     0.14700
H1889       H  0.17519969  0.55137848  0.93343474     0.14700
H1890       H  0.17989503  0.55778569  0.50780895     0.14700
H1891       H  0.31394750  0.01134875  0.84121844     0.13000
H1892       H  0.26968426  0.55083253  0.84352256     0.13000
H1893       H  0.31421548  0.99743828  0.59187101     0.12200
H1894       H  0.26736677  0.53548858  0.60068682     0.13000
H1895       H  0.32003499  0.93820858  0.45984744     0.26300
H1896       H  0.25661620  0.52104854  0.46293658     0.26300
N1897       N  0.33686199  0.69236919  0.50464345    -0.36500
N1898       N  0.33918513  0.73672156  0.94843079    -0.57000
N1899       N  0.34788301  0.78473579  0.50076596    -0.36500
N1900       N  0.34492771  0.74211626  0.55990501    -0.57000
C1901       C  0.32962718  0.67371804  0.97594566     0.27100
C1902       C  0.33129673  0.67711546  0.53545884     0.27100
C1903       C  0.35419326  0.79927080  0.97299675     0.27100
C1904       C  0.35655680  0.80230512  0.52940965     0.27100
C1905       C  0.32714629  0.71299305  0.92972890     0.35700
C1906       C  0.33465001  0.76153282  0.92834963     0.35700
C1907       C  0.33211988  0.71962829  0.57909685     0.35700
C1908       C  0.33848698  0.76835794  0.57673461     0.35700
C1909       C  0.31900593  0.64630290  0.98810587    -0.21800
C1910       C  0.31934827  0.64913282  0.52626134    -0.21800
C1911       C  0.36842681  0.82603459  0.98354000    -0.21800
C1912       C  0.37042509  0.82799864  0.51698665    -0.21800
C1913       C  0.31305275  0.72348262  0.89909498    -0.22800
C1914       C  0.31937140  0.75353527  0.89702294    -0.22800
C1915       C  0.31605907  0.73199375  0.60677389    -0.22800
C1916       C  0.32108333  0.76257228  0.60621115    -0.22800
C1917       C  0.33105822  0.68220577  0.93869550    -0.18200
C1918       C  0.33469203  0.68828049  0.57168763    -0.18200
C1919       C  0.34883840  0.79721950  0.56586493    -0.18200
C1920       C  0.34624825  0.79067587  0.93686030    -0.18200
H1921       H  0.30894272  0.62813496  0.97236048     0.14700
H1922       H  0.31081995  0.63230348  0.54444663     0.14700
H1923       H  0.37632160  0.84432174  0.96714546     0.14700
H1924       H  0.37967108  0.84637026  0.53289872     0.14700
H1925       H  0.29996803  0.71113897  0.87926191     0.13000
H1926       H  0.31346455  0.76736292  0.87450292     0.13000
H1927       H  0.30074901  0.72051710  0.62430632     0.13000
H1928       H  0.31194817  0.77865714  0.62452286     0.13000
H1929       H  0.34732055  0.71330785  0.50356944     0.26300
H1930       H  0.33396545  0.76587597  0.50197649     0.26300
N1931       N  0.29973712  0.83018533  0.74752872    -0.36500
N1932       N  0.25760682  0.84110718  0.80522390    -0.57000
N1933       N  0.21307180  0.85350798  0.75067198    -0.36500
N1934       N  0.25457679  0.84248530  0.69223268    -0.57000
C1935       C  0.31544668  0.82079688  0.77688400     0.27100
C1936       C  0.31447390  0.82296359  0.71703761     0.27100
C1937       C  0.19893944  0.86241223  0.78093367     0.27100
C1938       C  0.19566248  0.85912227  0.72152980     0.27100
C1939       C  0.27664473  0.82290760  0.82197620     0.35700
C1940       C  0.23378726  0.84232700  0.82648290     0.35700
C1941       C  0.27599841  0.83257285  0.67022190     0.35700
C1942       C  0.22900807  0.84172624  0.67263818     0.35700
C1943       C  0.33994540  0.80660800  0.76493658    -0.21800
C1944       C  0.33902639  0.80719905  0.72754295    -0.21800
C1945       C  0.17212702  0.87369085  0.77053380    -0.21800
C1946       C  0.16999015  0.87153723  0.73351577    -0.21800
C1947       C  0.26354009  0.81089043  0.85212753    -0.22800
C1948       C  0.23828892  0.82578589  0.85724245    -0.22800
C1949       C  0.26333772  0.82409997  0.63728336    -0.22800
C1950       C  0.23438585  0.83139807  0.63814999    -0.22800
C1951       C  0.30698236  0.82204634  0.81402802    -0.18200
C1952       C  0.30635377  0.82999665  0.68008906    -0.18200
C1953       C  0.20096566  0.85066923  0.68491239    -0.18200
C1954       C  0.20733868  0.85642956  0.81755737    -0.18200
H1955       H  0.35572273  0.79544252  0.78165688     0.14700
H1956       H  0.35445909  0.79657011  0.71002207     0.14700
H1957       H  0.15435526  0.87992127  0.78765539     0.14700
H1958       H  0.15068916  0.87686572  0.71783793     0.14700
H1959       H  0.27037159  0.79220075  0.86808048     0.13000
H1960       H  0.22468555  0.82374621  0.88063609     0.13000
H1961       H  0.27242354  0.81092987  0.61594518     0.13000
H1962       H  0.21904233  0.82833982  0.61592068     0.13000
H1963       H  0.28151914  0.84369422  0.74842184     0.26300
H1964       H  0.23164606  0.84051869  0.74995683     0.26300
C1965       C  0.14444439  0.88381384  0.87760081     0.86600
C1966       C  0.15493800  0.86650746  0.91231929    -0.53600
C1967       C  0.16823117  0.83911197  0.90611258     0.09500
C1968       C  0.16976784  0.83301111  0.86469029     0.20500
C1969       C  0.17269855  0.88657010  0.85505084    -0.54400
C1970       C  0.18502152  0.85999183  0.84686889     0.09600
C1971       C  0.12515555  0.85987661  0.85762654    -0.53900
C1972       C  0.13833019  0.83346775  0.85175970     0.10200
H1973       H  0.14923510  0.87403765  0.93914240     0.14700
H1974       H  0.17922637  0.81245847  0.85512808     0.00500
H1975       H  0.18279955  0.90676266  0.84515573     0.15000
H1976       H  0.10176735  0.86228565  0.85268755     0.14800
C1977       C  0.13632654  0.87493983  0.62241112     0.86600
C1978       C  0.16288224  0.87808388  0.64876195    -0.53600
C1979       C  0.17566583  0.85186583  0.65791243     0.09500
C1980       C  0.16103934  0.82419083  0.63862022     0.20500
C1981       C  0.14876065  0.85800290  0.58947066    -0.54400
C1982       C  0.16261746  0.83143930  0.59743867     0.09600
C1983       C  0.11573734  0.85091514  0.63850811    -0.53900
C1984       C  0.12809689  0.82476426  0.64719926     0.10200
H1985       H  0.17056777  0.89956051  0.65996917     0.14700
H1986       H  0.17015800  0.80326622  0.64832412     0.00500
H1987       H  0.14469761  0.86436295  0.56205990     0.15000
H1988       H  0.09261803  0.85455554  0.64330261     0.14800
C1989       C  0.36045899  0.62034596  0.63042161     0.86600
C1990       C  0.33315148  0.62058106  0.65490427    -0.53600
C1991       C  0.32259937  0.64840917  0.66193328     0.09500
C1992       C  0.34028091  0.67370117  0.64350901     0.20500
C1993       C  0.35149004  0.63784566  0.59621821    -0.54400
C1994       C  0.33996586  0.66593593  0.60232785     0.09600
C1995       C  0.38273347  0.64255824  0.64780635    -0.53900
C1996       C  0.37232509  0.66978879  0.65560057     0.10200
H1997       H  0.32375451  0.60043173  0.66689069     0.14700
H1998       H  0.33295971  0.69581684  0.65199218     0.00500
H1999       H  0.35816726  0.63099869  0.56975976     0.15000
H2000       H  0.40562776  0.63737004  0.65265451     0.14800
C2001       C  0.35303578  0.61143272  0.87829781     0.86600
C2002       C  0.34427097  0.62895702  0.91337750    -0.53600
C2003       C  0.33694435  0.65896414  0.90832032     0.09500
C2004       C  0.34094159  0.66763381  0.86776161     0.20500
C2005       C  0.32672074  0.61631430  0.85237975    -0.54400
C2006       C  0.32005558  0.64547284  0.84646029     0.09600
C2007       C  0.37837382  0.63079207  0.86518811    -0.53900
C2008       C  0.37312903  0.65974038  0.85962249     0.10200
H2009       H  0.34630058  0.61896884  0.93959399     0.14700
H2010       H  0.33798161  0.69077315  0.85927763     0.00500
H2011       H  0.31350325  0.59831749  0.84029369     0.15000
H2012       H  0.40032886  0.62260685  0.86682581     0.14800
N2013       N  0.03249369  0.73162207  0.77743321    -0.36500
N2014       N  0.00120684  0.74131472  0.84809423    -0.57000
N2015       N  0.45225224  0.78092607  0.77579805    -0.36500
N2016       N  0.99105010  0.74928041  0.72261721    -0.57000
C2017       C  0.04966941  0.72202298  0.80490128     0.27100
C2018       C  0.04710603  0.72737761  0.74648201     0.27100
C2019       C  0.43683647  0.77353359  0.80554194     0.27100
C2020       C  0.43397712  0.77585124  0.74703998     0.27100
C2021       C  0.02805131  0.75472548  0.84845247     0.35700
C2022       C  0.47950006  0.76576883  0.84453147     0.35700
C2023       C  0.01590504  0.75526274  0.70462987     0.35700
C2024       C  0.47290615  0.77038344  0.70355243     0.35700
C2025       C  0.07203910  0.70543396  0.79053260    -0.21800
C2026       C  0.07137424  0.71033915  0.75360396    -0.21800
C2027       C  0.40758726  0.76829027  0.79595228    -0.21800
C2028       C  0.40580781  0.76971768  0.75893323    -0.21800
C2029       C  0.02575633  0.78574066  0.84994078    -0.22800
C2030       C  0.49364756  0.79353757  0.84607483    -0.22800
C2031       C  0.01044446  0.77373702  0.67538444    -0.22800
C2032       C  0.48450128  0.78268128  0.67257294    -0.22800
C2033       C  0.05318151  0.74006233  0.83662499    -0.18200
C2034       C  0.04371290  0.74636808  0.71645407    -0.18200
C2035       C  0.44337675  0.76861551  0.71185643    -0.18200
C2036       C  0.45001403  0.76030261  0.83591921    -0.18200
H2037       H  0.09086362  0.69773648  0.80543769     0.14700
H2038       H  0.08927445  0.70638976  0.73554830     0.14700
H2039       H  0.39034290  0.75968232  0.81315906     0.14700
H2040       H  0.38696497  0.76255383  0.74252636     0.14700
H2041       H  0.04326172  0.80249814  0.84763293     0.13000
H2042       H  0.48386132  0.81520538  0.84308325     0.13000
H2043       H  0.02607061  0.78251404  0.65614362     0.13000
H2044       H  0.47327685  0.79522447  0.65194110     0.13000
H2045       H  0.01646591  0.74757325  0.78048197     0.26300
H2046       H  0.47503585  0.78349595  0.77485906     0.26300
N2047       N  0.19780126  0.66345702  0.74929661    -0.36500
N2048       N  0.24200322  0.65877216  0.80735409    -0.57000
N2049       N  0.28831180  0.65419209  0.75324837    -0.36500
N2050       N  0.24520793  0.66172301  0.69450619    -0.57000
C2051       C  0.18221419  0.67436372  0.77746672     0.27100
C2052       C  0.18391183  0.67101843  0.71787922     0.27100
C2053       C  0.30512631  0.65837542  0.78344048     0.27100
C2054       C  0.30565177  0.66056952  0.72471638     0.27100
C2055       C  0.21902917  0.66804600  0.82768152     0.35700
C2056       C  0.26627534  0.65725425  0.82967001     0.35700
C2057       C  0.22087107  0.65221802  0.67549397     0.35700
C2058       C  0.26861053  0.65004047  0.67727525     0.35700
C2059       C  0.15888734  0.69017073  0.76347156    -0.21800
C2060       C  0.15983983  0.68792679  0.72618031    -0.21800
C2061       C  0.33309693  0.66801844  0.77408363    -0.21800
C2062       C  0.33311294  0.67001621  0.73709526    -0.21800
C2063       C  0.23064128  0.67572723  0.86164944    -0.22800
C2064       C  0.25903947  0.66646164  0.86375665    -0.22800
C2065       C  0.22943733  0.63383169  0.64766977    -0.22800
C2066       C  0.25936861  0.63321897  0.64772914    -0.22800
C2067       C  0.18850266  0.67064998  0.81538718    -0.18200
C2068       C  0.19142946  0.66087414  0.68237849    -0.18200
C2069       C  0.29826842  0.65402552  0.68826658    -0.18200
C2070       C  0.29614424  0.65352668  0.81920973    -0.18200
H2071       H  0.14315147  0.70278146  0.77851871     0.14700
H2072       H  0.14463022  0.69790380  0.70735394     0.14700
H2073       H  0.35136560  0.67396379  0.79195664     0.14700
H2074       H  0.35110313  0.67804836  0.72121216     0.14700
H2075       H  0.22248539  0.69141759  0.88097414     0.13000
H2076       H  0.27379077  0.66999667  0.88660753     0.13000
H2077       H  0.21578487  0.62035555  0.63070993     0.13000
H2078       H  0.27257716  0.62028528  0.62957369     0.13000
H2079       H  0.21503512  0.64872995  0.75116223     0.26300
H2080       H  0.26749889  0.64393246  0.75205053     0.26300
C2081       C  0.39694975  0.70755968  0.88093381    -0.05700
C2082       C  0.39806021  0.68231935  0.85797588     0.00300
C2083       C  0.42300636  0.67972376  0.83516049    -0.08300
C2084       C  0.43983363  0.70585933  0.82836672    -0.05700
C2085       C  0.43611158  0.73201641  0.84851164     0.00300
C2086       C  0.41706192  0.73169390  0.87784478    -0.08200
C2087       C  0.41780051  0.75754578  0.90425348     0.62200
H2088       H  0.38044886  0.70829480  0.90142816     0.12900
H2089       H  0.45647185  0.70611247  0.80775757     0.12900
C2090       C  0.43439113  0.65020925  0.82071007     0.62400
F2091       F  0.41005210  0.78276589  0.88582799    -0.22800
F2092       F  0.44590331  0.76184801  0.91841150    -0.20100
F2093       F  0.39899342  0.75283090  0.93268901    -0.19800
F2094       F  0.41238831  0.63301146  0.80386442    -0.19800
F2095       F  0.44656721  0.63450311  0.84902990    -0.20100
F2096       F  0.45646479  0.65483224  0.79590219    -0.22800
C2097       C  0.39123582  0.72161206  0.65194239    -0.05700
C2098       C  0.39161556  0.69426746  0.67004533     0.00300
C2099       C  0.41078793  0.69111005  0.70023503    -0.08300
C2100       C  0.42936993  0.71534024  0.71023941    -0.05700
C2101       C  0.42723574  0.74335365  0.69381551     0.00300
C2102       C  0.40805775  0.74653786  0.66411440    -0.08200
C2103       C  0.40321551  0.77546554  0.64511141     0.62200
H2104       H  0.37711385  0.72384844  0.62841012     0.12900
H2105       H  0.44403268  0.71319539  0.73347127     0.12900
C2106       C  0.41093667  0.66487549  0.72586544     0.62400
F2107       F  0.37384157  0.78143884  0.64767782    -0.22800
F2108       F  0.41050832  0.77194247  0.60914775    -0.20100
F2109       F  0.41920871  0.79957677  0.65963942    -0.19800
F2110       F  0.43837820  0.65248104  0.72603276    -0.19800
F2111       F  0.39027437  0.64242149  0.71848836    -0.20100
F2112       F  0.40509725  0.67605510  0.75980075    -0.22800
C2113       C  0.08202339  0.75427224  0.67072509    -0.05700
C2114       C  0.06943740  0.76387371  0.70285557     0.00300
C2115       C  0.07666731  0.79318371  0.71646922    -0.08300
C2116       C  0.09890012  0.81009396  0.69953538    -0.05700
C2117       C  0.11037221  0.80130412  0.66624885     0.00300
C2118       C  0.09970785  0.77387835  0.65024720    -0.08200
C2119       C  0.10255689  0.76539152  0.61089320     0.62200
H2120       H  0.07457935  0.73290634  0.65905692     0.12900
H2121       H  0.10527990  0.83210376  0.71010283     0.12900
C2122       C  0.05876160  0.80847046  0.74544017     0.62400
F2123       F  0.07495959  0.75920486  0.59595480    -0.22800
F2124       F  0.11860852  0.73987812  0.60875210    -0.20100
F2125       F  0.11544991  0.78766033  0.59059724    -0.19800
F2126       F  0.05572376  0.79060624  0.77525119    -0.19800
F2127       F  0.03119401  0.81444610  0.73180847    -0.20100
F2128       F  0.07165617  0.83546495  0.75689446    -0.22800
C2129       C  0.10706492  0.79503079  0.87997681    -0.05700
C2130       C  0.12137577  0.80524566  0.84902707     0.00300
C2131       C  0.12039334  0.78799028  0.81718028    -0.08300
C2132       C  0.10045208  0.76378869  0.81524454    -0.05700
C2133       C  0.08237444  0.75560984  0.84461795     0.00300
C2134       C  0.08841768  0.76961293  0.87876952    -0.08200
C2135       C  0.07392656  0.76064640  0.91384904     0.62200
H2136       H  0.10986989  0.80754573  0.90516670     0.12900
H2137       H  0.09674694  0.75434112  0.78885076     0.12900
C2138       C  0.13832784  0.79659738  0.78438412     0.62400
F2139       F  0.09515385  0.75708152  0.94045309    -0.22800
F2140       F  0.05794269  0.73409120  0.91075404    -0.20100
F2141       F  0.05547186  0.78293313  0.92474908    -0.19800
F2142       F  0.16789796  0.79697281  0.79309890    -0.19800
F2143       F  0.13057283  0.82467284  0.77310670    -0.20100
F2144       F  0.13381348  0.77665039  0.75576321    -0.22800
C2145       C  0.20579468  0.61382340  0.90320329    -0.05700
C2146       C  0.17881193  0.60897565  0.88482756     0.00300
C2147       C  0.17540950  0.58373608  0.86021643    -0.08300
C2148       C  0.19655406  0.56185515  0.86168871    -0.05700
C2149       C  0.22074474  0.56529141  0.88451516     0.00300
C2150       C  0.22775500  0.59295062  0.90128907    -0.08200
C2151       C  0.25785506  0.59932321  0.91816244     0.62200
H2152       H  0.20943308  0.63337841  0.92036453     0.12900
H2153       H  0.19270509  0.54031748  0.84832471     0.12900
C2154       C  0.15034787  0.57792448  0.83297326     0.62400
F2155       F  0.27891845  0.59370611  0.89292521    -0.22800
F2156       F  0.26262565  0.58123643  0.94745754    -0.20100
F2157       F  0.26135563  0.62883809  0.92946043    -0.19800
F2158       F  0.15715602  0.55613350  0.80772614    -0.19800
F2159       F  0.14491743  0.60338394  0.81367572    -0.20100
F2160       F  0.12540905  0.56767182  0.85014332    -0.22800
C2161       C  0.20285747  0.61415061  0.55695350    -0.05700
C2162       C  0.18331746  0.60424428  0.58302383     0.00300
C2163       C  0.18636788  0.57511258  0.59825527    -0.08300
C2164       C  0.20624303  0.55562219  0.58242181    -0.05700
C2165       C  0.22498177  0.56545039  0.55519163     0.00300
C2166       C  0.22490709  0.59589126  0.54467372    -0.08200
C2167       C  0.24715678  0.61030578  0.52024357     0.62200
H2168       H  0.20164843  0.63691618  0.54705939     0.12900
H2169       H  0.20666692  0.53234477  0.59046055     0.12900
C2170       C  0.17054091  0.56474726  0.63210064     0.62400
F2171       F  0.25759098  0.63671568  0.53629643    -0.22800
F2172       F  0.23354166  0.61710438  0.48787307    -0.20100
F2173       F  0.27074664  0.59227897  0.51414035    -0.19800
F2174       F  0.14216859  0.55521671  0.62345216    -0.19800
F2175       F  0.17009931  0.58758420  0.65763064    -0.20100
F2176       F  0.18461413  0.54103614  0.64804859    -0.22800
C2177       C  0.29854978  0.93488318  0.55050330    -0.05700
C2178       C  0.32303150  0.94788300  0.53282848     0.00300
C2179       C  0.34929652  0.93183699  0.53122483    -0.08300
C2180       C  0.35031756  0.90426748  0.54886832    -0.05700
C2181       C  0.32758094  0.89364021  0.57140179     0.00300
C2182       C  0.30061873  0.90832563  0.57065908    -0.08200
C2183       C  0.27449959  0.89639259  0.59143136     0.62200
H2184       H  0.27798003  0.94637974  0.54961131     0.12900
H2185       H  0.37073628  0.89264916  0.54908641     0.12900
C2186       C  0.37711410  0.94442960  0.51377129     0.62400
F2187       F  0.25074019  0.91488827  0.58851193    -0.22800
F2188       F  0.28181505  0.89400618  0.62772880    -0.20100
F2189       F  0.26603204  0.86853930  0.57759947    -0.19800
F2190       F  0.38187029  0.97421705  0.52349679    -0.19800
F2191       F  0.37481544  0.94193685  0.47654844    -0.20100
F2192       F  0.40170966  0.92914835  0.52457565    -0.22800
C2193       C  0.29039090  0.88977345  0.86248445    -0.05700
C2194       C  0.29480373  0.87574324  0.89581821     0.00300
C2195       C  0.28562984  0.89037124  0.92733525    -0.08300
C2196       C  0.28272944  0.92150281  0.92582731    -0.05700
C2197       C  0.29112447  0.93685437  0.89438917     0.00300
C2198       C  0.28906720  0.92093534  0.86102701    -0.08200
C2199       C  0.28635776  0.93610385  0.82445675     0.62200
H2200       H  0.29526038  0.87789849  0.83797013     0.12900
H2201       H  0.27786017  0.93393350  0.95022450     0.12900
C2202       C  0.28623843  0.87511445  0.96357889     0.62400
F2203       F  0.28464922  0.91542676  0.79623718    -0.22800
F2204       F  0.31013876  0.95514322  0.81848029    -0.20100
F2205       F  0.26096221  0.95227228  0.82340400    -0.19800
F2206       F  0.31361073  0.87961784  0.97967492    -0.19800
F2207       F  0.28050571  0.84463601  0.95942288    -0.20100
F2208       F  0.26520638  0.88673538  0.98591713    -0.22800
C2209       C  0.08922782  0.94424521  0.59471602    -0.05700
C2210       C  0.07505158  0.94932658  0.62783260     0.00300
C2211       C  0.08471634  0.93330458  0.65865834    -0.08300
C2212       C  0.10741853  0.91302002  0.65474102    -0.05700
C2213       C  0.11893267  0.90460375  0.62092652     0.00300
C2214       C  0.11108606  0.92240921  0.59047019    -0.08200
C2215       C  0.12498289  0.91956484  0.55364621     0.62200
H2216       H  0.08223432  0.95690799  0.57143273     0.12900
H2217       H  0.11465115  0.90102330  0.67839212     0.12900
C2218       C  0.07000646  0.93528209  0.69534251     0.62400
F2219       F  0.12082170  0.94489748  0.53301174    -0.22800
F2220       F  0.11221898  0.89543083  0.53495064    -0.20100
F2221       F  0.15497140  0.91642454  0.55738696    -0.19800
F2222       F  0.04035827  0.92815103  0.69141842    -0.19800
F2223       F  0.07396325  0.96385629  0.70975075    -0.20100
F2224       F  0.08141833  0.91549673  0.72017097    -0.22800
C2225       C  0.05417292  0.59655612  0.65653030    -0.05700
C2226       C  0.04569156  0.58300988  0.62303009     0.00300
C2227       C  0.05362787  0.59827863  0.59081106    -0.08300
C2228       C  0.07332705  0.62320465  0.59354132    -0.05700
C2229       C  0.08668812  0.63227400  0.62680446     0.00300
C2230       C  0.07310226  0.62207546  0.65871671    -0.08200
C2231       C  0.07470354  0.63950867  0.69397370     0.62200
H2232       H  0.04566396  0.58749329  0.68149939     0.12900
H2233       H  0.08196761  0.63286310  0.56900994     0.12900
C2234       C  0.04319500  0.58774874  0.55341929     0.62400
F2235       F  0.04680008  0.64207189  0.70769353    -0.22800
F2236       F  0.08584368  0.66823840  0.68870773    -0.20100
F2237       F  0.09175342  0.62481776  0.71906859    -0.19800
F2238       F  0.01286782  0.58536148  0.55218906    -0.19800
F2239       F  0.05497180  0.56028401  0.54546742    -0.20100
F2240       F  0.05175774  0.60756687  0.52669485    -0.22800
C2241       C  0.40747361  0.55379843  0.59980384    -0.05700
C2242       C  0.42217288  0.54798141  0.63291398     0.00300
C2243       C  0.41013766  0.55996545  0.66520683    -0.08300
C2244       C  0.38660710  0.57959757  0.66234183    -0.05700
C2245       C  0.37535151  0.58942507  0.62888311     0.00300
C2246       C  0.38329199  0.57305861  0.59748324    -0.08200
C2247       C  0.36522867  0.57234300  0.56268452     0.62200
H2248       H  0.41473581  0.54294755  0.57530208     0.12900
H2249       H  0.37862483  0.59015553  0.68659425     0.12900
C2250       C  0.42224309  0.55349332  0.70289685     0.62400
F2251       F  0.36383265  0.54353799  0.54835987    -0.22800
F2252       F  0.37809690  0.59108143  0.53751555    -0.20100
F2253       F  0.33664837  0.58045841  0.56874686    -0.19800
F2254       F  0.45097723  0.56410684  0.70634101    -0.19800
F2255       F  0.42063405  0.52295078  0.70907187    -0.20100
F2256       F  0.40662672  0.56738485  0.72972667    -0.22800
C2257       C  0.43123810  0.92044807  0.66857867    -0.05700
C2258       C  0.45202929  0.91999860  0.64124266     0.00300
C2259       C  0.45520217  0.89330287  0.62107902    -0.08300
C2260       C  0.43403391  0.86980520  0.62492319    -0.05700
C2261       C  0.40957774  0.87228138  0.64798489     0.00300
C2262       C  0.41054493  0.89689114  0.67341163    -0.08200
C2263       C  0.38998380  0.89948268  0.70538177     0.62200
H2264       H  0.43059194  0.94036941  0.68546885     0.12900
H2265       H  0.43572930  0.85060954  0.60741454     0.12900
C2266       C  0.48080759  0.88960415  0.59578001     0.62400
F2267       F  0.39367766  0.87543054  0.72814637    -0.22800
F2268       F  0.36107761  0.90078823  0.69386918    -0.20100
F2269       F  0.39601113  0.92512020  0.72588788    -0.19800
F2270       F  0.50685644  0.89709110  0.61389183    -0.19800
F2271       F  0.47772365  0.90799343  0.56616025    -0.20100
F2272       F  0.48254829  0.86035612  0.58331143    -0.22800
C2273       C  0.07860463  0.61590486  0.82821224    -0.05700
C2274       C  0.08046109  0.63670533  0.85723883     0.00300
C2275       C  0.06013580  0.63127054  0.88603760    -0.08300
C2276       C  0.04552709  0.60306056  0.88890665    -0.05700
C2277       C  0.04687814  0.58089661  0.86211558     0.00300
C2278       C  0.06235119  0.58829720  0.82986788    -0.08200
C2279       C  0.06346470  0.56673119  0.79781965     0.62200
H2280       H  0.09228703  0.62005923  0.80517368     0.12900
H2281       H  0.03202347  0.59845453  0.91217741     0.12900
C2282       C  0.05018865  0.65586332  0.91113137     0.62400
F2283       F  0.08166702  0.57740779  0.77091001    -0.22800
F2284       F  0.03569855  0.56254902  0.78264574    -0.20100
F2285       F  0.07402014  0.53953189  0.80903051    -0.19800
F2286       F  0.04554500  0.68125738  0.89110458    -0.19800
F2287       F  0.07055994  0.66143246  0.93859174    -0.20100
F2288       F  0.02375494  0.64833502  0.92723582    -0.22800
C2289       C  0.09499595  0.95269881  0.85807733    -0.05700
C2290       C  0.07257546  0.94797207  0.88288156     0.00300
C2291       C  0.07685590  0.92579511  0.90993758    -0.08300
C2292       C  0.10210042  0.90810843  0.90882202    -0.05700
C2293       C  0.12461742  0.91186221  0.88324476     0.00300
C2294       C  0.12153667  0.93682068  0.85890038    -0.08200
C2295       C  0.14610584  0.94968933  0.83587979     0.62200
H2296       H  0.09186554  0.97021674  0.83842237     0.12900
H2297       H  0.10329060  0.88969079  0.92756770     0.12900
C2298       C  0.05585002  0.91844067  0.94041997     0.62400
F2299       F  0.13941322  0.97728593  0.82150384    -0.22800
F2300       F  0.15122886  0.93094163  0.80698282    -0.20100
F2301       F  0.17108123  0.95449513  0.85713491    -0.19800
F2302       F  0.04959753  0.88789452  0.94067098    -0.19800
F2303       F  0.02952261  0.93251982  0.93796037    -0.20100
F2304       F  0.06926395  0.92659423  0.97303348    -0.22800
C2305       C  0.42572052  0.87153352  0.88694150    -0.05700
C2306       C  0.39847925  0.87731626  0.86951992     0.00300
C2307       C  0.39585983  0.90637419  0.85346744    -0.08300
C2308       C  0.41800253  0.92844945  0.85990778    -0.05700
C2309       C  0.44324150  0.92340106  0.88054440     0.00300
C2310       C  0.44774776  0.89418811  0.89331434    -0.08200
C2311       C  0.47580083  0.88711756  0.91334280     0.62200
H2312       H  0.43001563  0.84934109  0.89631373     0.12900
H2313       H  0.41532720  0.95064230  0.84869850     0.12900
C2314       C  0.37011257  0.91764127  0.83127981     0.62400
F2315       F  0.47774415  0.90404403  0.94486962    -0.22800
F2316       F  0.49950897  0.89391693  0.89169852    -0.20100
F2317       F  0.47689404  0.85716854  0.92252891    -0.19800
F2318       F  0.35764963  0.94057303  0.85053266    -0.19800
F2319       F  0.34855647  0.89656772  0.82270612    -0.20100
F2320       F  0.38032497  0.92901662  0.79899411    -0.22800
C2321       C  0.40209235  0.54841837  0.84770981    -0.05700
C2322       C  0.41751986  0.54289376  0.87991601     0.00300
C2323       C  0.40398225  0.55149849  0.91304758    -0.08300
C2324       C  0.37899375  0.56978625  0.91189742    -0.05700
C2325       C  0.36606951  0.57932840  0.87921758     0.00300
C2326       C  0.37615593  0.56518143  0.84660256    -0.08200
C2327       C  0.36054107  0.56780684  0.81001849     0.62200
H2328       H  0.41106551  0.53999901  0.82280120     0.12900
H2329       H  0.37093554  0.57852799  0.93698497     0.12900
C2330       C  0.41571034  0.54216715  0.94994055     0.62400
F2331       F  0.37326512  0.55053444  0.78363178    -0.22800
F2332       F  0.36129879  0.59707028  0.79814475    -0.20100
F2333       F  0.33188360  0.55732965  0.81254846    -0.19800
F2334       F  0.44287816  0.55583767  0.95687738    -0.19800
F2335       F  0.41790791  0.51130868  0.95081006    -0.20100
F2336       F  0.39741583  0.55023872  0.97769336    -0.22800
O2337       O  0.51819695  0.03535155  0.34415706    -0.72800
O2338       O  0.97439522  0.45804943  0.35213163    -0.73800
O2339       O  0.95642558  0.01920971  0.34766985    -0.62400
O2340       O  0.53595521  0.47214648  0.35268865    -0.70800
O2341       O  0.53700771  0.47802882  0.41212552    -0.70400
O2342       O  0.96043827  0.02290736  0.40691068    -0.61600
O2343       O  0.97442501  0.46186464  0.41196403    -0.74100
O2344       O  0.52048921  0.04192944  0.40328195    -0.72900
Cu2345     Cu  0.99632957  0.49664227  0.34616757     1.04600
Cu2346     Cu  0.49703413  0.00160243  0.41113248     1.04300
C2347       C  0.52679563  0.05120520  0.37128069     0.93400
C2348       C  0.96629507  0.44802698  0.38258290     0.92500
C2349       C  0.94568531  0.02752483  0.37818966     0.84700
C2350       C  0.54773114  0.46654276  0.38378502     0.90900
O2351       O  0.53929867  0.47785721  0.15958537    -0.72800
O2352       O  0.96269555  0.02508639  0.16166837    -0.73800
O2353       O  0.97938336  0.46336577  0.16568073    -0.62400
O2354       O  0.52270058  0.04239333  0.16009858    -0.70800
O2355       O  0.51942636  0.03984604  0.10058020    -0.70400
O2356       O  0.97499642  0.45884386  0.10605879    -0.61600
O2357       O  0.95766432  0.02097860  0.10245911    -0.74100
O2358       O  0.53560485  0.47333738  0.10024568    -0.72900
Cu2359     Cu  0.00190381  0.50226222  0.16291052     1.04600
Cu2360     Cu  0.49750813  0.49581644  0.09927912     1.04300
C2361       C  0.54920513  0.46770793  0.12986769     0.93400
C2362       C  0.94828770  0.03077673  0.13271499     0.92500
C2363       C  0.97001463  0.44876741  0.13776828     0.84700
C2364       C  0.52789258  0.05404808  0.12930406     0.90900
N2365       N  0.67243849  0.30439619  0.00394198    -0.36500
N2366       N  0.66647759  0.25530405  0.05821944    -0.57000
N2367       N  0.65467207  0.21272590  0.00069500    -0.36500
N2368       N  0.65660752  0.26113992  0.44554737    -0.57000
C2369       C  0.67839631  0.31999255  0.03495858     0.27100
C2370       C  0.67629129  0.32266403  0.47575722     0.27100
C2371       C  0.64867076  0.19530552  0.02988773     0.27100
C2372       C  0.64182198  0.19825436  0.47107841     0.27100
C2373       C  0.67826760  0.27808463  0.07857858     0.35700
C2374       C  0.67123433  0.22948509  0.07623486     0.35700
C2375       C  0.67254540  0.28287451  0.42852809     0.35700
C2376       C  0.65954108  0.23535141  0.42621699     0.35700
C2377       C  0.68876467  0.34850669  0.02613810    -0.21800
C2378       C  0.68609984  0.35053011  0.48879098    -0.21800
C2379       C  0.63352462  0.16951907  0.01807821    -0.21800
C2380       C  0.62843723  0.17143530  0.48143591    -0.21800
C2381       C  0.69202043  0.26617966  0.10881570    -0.22800
C2382       C  0.68676556  0.23565313  0.10790393    -0.22800
C2383       C  0.68695911  0.26965373  0.39993507    -0.22800
C2384       C  0.67729704  0.24043744  0.39708772    -0.22800
C2385       C  0.67457565  0.30911559  0.07093827    -0.18200
C2386       C  0.67351923  0.31419964  0.43843086    -0.18200
C2387       C  0.64684733  0.20706234  0.43473596    -0.18200
C2388       C  0.65840688  0.20126780  0.06630707    -0.18200
H2389       H  0.69674343  0.36593751  0.04469348     0.14700
H2390       H  0.69416307  0.36941289  0.47331090     0.14700
H2391       H  0.62659551  0.15052575  0.03410841     0.14700
H2392       H  0.61903282  0.15397515  0.46398429     0.14700
H2393       H  0.70546098  0.27763583  0.12911629     0.13000
H2394       H  0.69382852  0.21985121  0.12804969     0.13000
H2395       H  0.70450393  0.27859484  0.38397059     0.13000
H2396       H  0.68434830  0.22439783  0.37725517     0.13000
H2397       H  0.66314271  0.28298175  0.00284598     0.26300
H2398       H  0.66869001  0.23151622  0.00027107     0.26300
C2399       C  0.87268240  0.35513776  0.37468025     0.86600
C2400       C  0.87731393  0.32812234  0.39944509    -0.53600
C2401       C  0.85224325  0.31208766  0.40701339     0.09500
C2402       C  0.82477852  0.32402057  0.38789887     0.20500
C2403       C  0.85704746  0.34102260  0.34039359    -0.54400
C2404       C  0.83090791  0.32517731  0.34640584     0.09600
C2405       C  0.84904081  0.37214643  0.39467262    -0.53900
C2406       C  0.82358116  0.35647136  0.39981536     0.10200
H2407       H  0.89755614  0.32385075  0.41360429     0.14700
H2408       H  0.80567152  0.31211059  0.39839134     0.00500
H2409       H  0.86467464  0.34635220  0.31350925     0.15000
H2410       H  0.85081527  0.39600956  0.40067882     0.14800
C2411       C  0.87834194  0.35922913  0.13766215     0.86600
C2412       C  0.85775870  0.34682084  0.16649056    -0.53600
C2413       C  0.82999262  0.33752900  0.15481403     0.09500
C2414       C  0.82665510  0.34123151  0.11220732     0.20500
C2415       C  0.87879684  0.33356272  0.10868599    -0.54400
C2416       C  0.85179701  0.32315088  0.09639371     0.09600
C2417       C  0.86096407  0.38334055  0.11976932    -0.53900
C2418       C  0.83526333  0.37440068  0.10383972     0.10200
H2419       H  0.86459889  0.34709717  0.19430934     0.14700
H2420       H  0.80584905  0.33509033  0.09874867     0.00500
H2421       H  0.89832476  0.32398674  0.09812212     0.15000
H2422       H  0.87040859  0.40576454  0.11575199     0.14800
C2423       C  0.61867457  0.14336097  0.12706142     0.86600
C2424       C  0.63832141  0.14886552  0.16152645    -0.53600
C2425       C  0.66721948  0.15689621  0.15524234     0.09500
C2426       C  0.67364617  0.15752472  0.11385984     0.20500
C2427       C  0.62288705  0.17158091  0.10403191    -0.54400
C2428       C  0.65135897  0.17873487  0.09568341     0.09600
C2429       C  0.63507742  0.11924877  0.10666323    -0.53900
C2430       C  0.66363455  0.12563347  0.10086203     0.10200
H2431       H  0.63142513  0.14356897  0.18848929     0.14700
H2432       H  0.69669859  0.16368973  0.10741302     0.00500
H2433       H  0.60450836  0.18328702  0.09235537     0.15000
H2434       H  0.62460041  0.09852936  0.09712150     0.14800
C2435       C  0.60995013  0.15083688  0.36734377     0.86600
C2436       C  0.61257086  0.17808627  0.39287188    -0.53600
C2437       C  0.64039612  0.18482838  0.40456847     0.09500
C2438       C  0.66382349  0.16537560  0.38679649     0.20500
C2439       C  0.63117744  0.16051530  0.33530224    -0.54400
C2440       C  0.66054447  0.16830953  0.34523109     0.09600
C2441       C  0.62663457  0.12634640  0.38684522    -0.53900
C2442       C  0.65526705  0.13252139  0.39286754     0.10200
H2443       H  0.59478077  0.19190036  0.40082365     0.14700
H2444       H  0.68434845  0.17060003  0.40048453     0.00500
H2445       H  0.62396373  0.15801583  0.30739042     0.15000
H2446       H  0.61723114  0.10418104  0.39165832     0.14800
N2447       N  0.82542632  0.46268294  0.95518165    -0.36500
N2448       N  0.75478520  0.99271720  0.40350855    -0.57000
N2449       N  0.73796684  0.02887087  0.96797677    -0.36500
N2450       N  0.78006706  0.01264691  0.02043211    -0.57000
C2451       C  0.81624099  0.47642483  0.42575593     0.27100
C2452       C  0.82869934  0.48347667  0.98170438     0.27100
C2453       C  0.71643853  0.03083102  0.44152852     0.27100
C2454       C  0.72452806  0.03757972  0.99858971     0.27100
C2455       C  0.77970100  0.48473550  0.38044530     0.35700
C2456       C  0.74693313  0.01889532  0.38990799     0.35700
C2457       C  0.80316129  0.49852715  0.03504855     0.35700
C2458       C  0.76398590  0.02798783  0.04365087     0.35700
C2459       C  0.82219318  0.50692346  0.43157492    -0.21800
C2460       C  0.83040237  0.51182944  0.96674131    -0.21800
C2461       C  0.69042046  0.04142906  0.45484287    -0.21800
C2462       C  0.69628946  0.04640622  0.99014516    -0.21800
C2463       C  0.78808419  0.50601896  0.35540722    -0.22800
C2464       C  0.76473338  0.02765880  0.36161709    -0.22800
C2465       C  0.80047644  0.50439514  0.07168220    -0.22800
C2466       C  0.77484752  0.02450040  0.07863861    -0.22800
C2467       C  0.79802117  0.46489445  0.39676453    -0.18200
C2468       C  0.82129256  0.47783387  0.01805529    -0.18200
C2469       C  0.73825605  0.04228350  0.03295377    -0.18200
C2470       C  0.72595134  0.03590422  0.40608917    -0.18200
H2471       H  0.81887857  0.52510108  0.41296042     0.14700
H2472       H  0.83173941  0.53309061  0.98113924     0.14700
H2473       H  0.67174643  0.04892851  0.43929147     0.14700
H2474       H  0.68035348  0.05542049  0.00837925     0.14700
H2475       H  0.80802395  0.50664581  0.33995639     0.13000
H2476       H  0.76418284  0.04830079  0.34653502     0.13000
H2477       H  0.81377849  0.49578067  0.09352558     0.12200
H2478       H  0.76596820  0.03342086  0.10335772     0.13000
H2479       H  0.82407278  0.43970751  0.95955974     0.26300
H2480       H  0.76018874  0.02507864  0.96460957     0.26300
N2481       N  0.83656884  0.19310608  0.00646491    -0.36500
N2482       N  0.84140027  0.23606247  0.44935914    -0.57000
N2483       N  0.84750705  0.28572461  0.00368647    -0.36500
N2484       N  0.84270437  0.24278066  0.06192211    -0.57000
C2485       C  0.82982078  0.17382573  0.47786781     0.27100
C2486       C  0.83006886  0.17782032  0.03699705     0.27100
C2487       C  0.85830467  0.29838777  0.47291759     0.27100
C2488       C  0.85646537  0.30269583  0.03272502     0.27100
C2489       C  0.82815537  0.21262216  0.43135856     0.35700
C2490       C  0.83752638  0.26073941  0.42891709     0.35700
C2491       C  0.82980628  0.22023409  0.08089468     0.35700
C2492       C  0.83685032  0.26895116  0.07927671     0.35700
C2493       C  0.81799049  0.14709163  0.49065529    -0.21800
C2494       C  0.81843611  0.14982988  0.02721929    -0.21800
C2495       C  0.87370334  0.32458490  0.48321709    -0.21800
C2496       C  0.87193732  0.32768158  0.02095541    -0.21800
C2497       C  0.81390925  0.22319721  0.40093043    -0.22800
C2498       C  0.82147435  0.25290543  0.39802955    -0.22800
C2499       C  0.81410083  0.23254133  0.10894604    -0.22800
C2500       C  0.81965639  0.26306213  0.10892582    -0.22800
C2501       C  0.83133035  0.18184689  0.44052308    -0.18200
C2502       C  0.83259077  0.18890050  0.07339490    -0.18200
C2503       C  0.84800815  0.29768320  0.06892435    -0.18200
C2504       C  0.85017768  0.28953326  0.43685394    -0.18200
H2505       H  0.80745388  0.12904522  0.47517102     0.14700
H2506       H  0.80927996  0.13301225  0.04499091     0.14700
H2507       H  0.88321214  0.34186895  0.46653644     0.14700
H2508       H  0.88220332  0.34526767  0.03724206     0.14700
H2509       H  0.80018950  0.21093389  0.38161447     0.13000
H2510       H  0.81584088  0.26653087  0.37520756     0.13000
H2511       H  0.79889788  0.22106350  0.12662169     0.13000
H2512       H  0.81131952  0.27899099  0.12801416     0.13000
H2513       H  0.84695533  0.21410165  0.00591364     0.26300
H2514       H  0.83268129  0.26752300  0.00418993     0.26300
N2515       N  0.79925484  0.32762563  0.24981719    -0.36500
N2516       N  0.75744185  0.33821924  0.30759546    -0.57000
N2517       N  0.71269083  0.35073130  0.25339090    -0.36500
N2518       N  0.75449757  0.34122258  0.19505188    -0.57000
C2519       C  0.81544742  0.31880632  0.27897613     0.27100
C2520       C  0.81453792  0.32188521  0.21930434     0.27100
C2521       C  0.69895805  0.36027193  0.28362548     0.27100
C2522       C  0.69583348  0.35772006  0.22427447     0.27100
C2523       C  0.77698920  0.32081816  0.32479834     0.35700
C2524       C  0.73375593  0.33975312  0.32904805     0.35700
C2525       C  0.77578779  0.33123520  0.17301693     0.35700
C2526       C  0.72904742  0.34048144  0.17542768     0.35700
C2527       C  0.84077068  0.30630306  0.26688187    -0.21800
C2528       C  0.83999254  0.30751879  0.22956305    -0.21800
C2529       C  0.67287307  0.37325181  0.27325144    -0.21800
C2530       C  0.67078423  0.37136231  0.23620907    -0.21800
C2531       C  0.76436400  0.30964664  0.35576436    -0.22800
C2532       C  0.73879399  0.32417704  0.36043243    -0.22800
C2533       C  0.76319863  0.32275429  0.14007356    -0.22800
C2534       C  0.73438195  0.33018601  0.14091385    -0.22800
C2535       C  0.80729815  0.32007665  0.31616546    -0.18200
C2536       C  0.80610562  0.32931111  0.18265425    -0.18200
C2537       C  0.70125709  0.34974783  0.18763217    -0.18200
C2538       C  0.70729104  0.35394896  0.32012006    -0.18200
H2539       H  0.85736369  0.29626375  0.28350699     0.14700
H2540       H  0.85630534  0.29839470  0.21207291     0.14700
H2541       H  0.65575066  0.38137854  0.29025899     0.14700
H2542       H  0.65211824  0.37827617  0.22039086     0.14700
H2543       H  0.77144753  0.29144810  0.37235412     0.13000
H2544       H  0.72543753  0.32268825  0.38409941     0.13000
H2545       H  0.77223808  0.30964156  0.11866242     0.13000
H2546       H  0.71917967  0.32732217  0.11857056     0.13000
H2547       H  0.78043817  0.33996284  0.25092558     0.26300
H2548       H  0.73038470  0.33669838  0.25260081     0.26300
C2549       C  0.64534457  0.38262155  0.38084325     0.86600
C2550       C  0.65644692  0.36594081  0.41544118    -0.53600
C2551       C  0.66948928  0.33845750  0.40931348     0.09500
C2552       C  0.67018973  0.33154773  0.36827467     0.20500
C2553       C  0.67297545  0.38483913  0.35708002    -0.54400
C2554       C  0.68515539  0.35809614  0.34941931     0.09600
C2555       C  0.62555622  0.35840452  0.36194226    -0.53900
C2556       C  0.63844656  0.33177860  0.35648119     0.10200
H2557       H  0.65072485  0.37376427  0.44214532     0.14700
H2558       H  0.67968566  0.31086112  0.35946392     0.00500
H2559       H  0.68267595  0.40454690  0.34556101     0.15000
H2560       H  0.60211528  0.36084569  0.35747702     0.14800
C2561       C  0.63711050  0.37400026  0.12488374     0.86600
C2562       C  0.66371718  0.37742161  0.15110536    -0.53600
C2563       C  0.67636459  0.35122268  0.16051925     0.09500
C2564       C  0.66204888  0.32347471  0.14140557     0.20500
C2565       C  0.64962860  0.35685414  0.09207672    -0.54400
C2566       C  0.66365228  0.33046995  0.10020796     0.09600
C2567       C  0.61668745  0.35010655  0.14154843    -0.53900
C2568       C  0.62928693  0.32405437  0.15026030     0.10200
H2569       H  0.67141039  0.39894669  0.16216693     0.14700
H2570       H  0.67131142  0.30266173  0.15125872     0.00500
H2571       H  0.64588420  0.36305355  0.06463172     0.15000
H2572       H  0.59366882  0.35380380  0.14689360     0.14800
C2573       C  0.85916343  0.12140607  0.13229489     0.86600
C2574       C  0.83224639  0.12160680  0.15733752    -0.53600
C2575       C  0.82157138  0.14935338  0.16428387     0.09500
C2576       C  0.83880960  0.17466194  0.14527835     0.20500
C2577       C  0.84961996  0.13850211  0.09803848    -0.54400
C2578       C  0.83802594  0.16661166  0.10408361     0.09600
C2579       C  0.88155693  0.14394506  0.14885558    -0.53900
C2580       C  0.87102133  0.17109504  0.15682245     0.10200
H2581       H  0.82313710  0.10146710  0.16965835     0.14700
H2582       H  0.83144608  0.19671568  0.15385852     0.00500
H2583       H  0.85617822  0.13130712  0.07158491     0.15000
H2584       H  0.90450823  0.13889755  0.15351312     0.14800
C2585       C  0.85146811  0.11055208  0.37993724     0.86600
C2586       C  0.84285120  0.12816493  0.41512572    -0.53600
C2587       C  0.83648476  0.15841163  0.41019787     0.09500
C2588       C  0.84075417  0.16712573  0.36972729     0.20500
C2589       C  0.82545260  0.11619831  0.35380329    -0.54400
C2590       C  0.81932865  0.14559170  0.34833948     0.09600
C2591       C  0.87723186  0.12935884  0.36702660    -0.53900
C2592       C  0.87267327  0.15842504  0.36153696     0.10200
H2593       H  0.84399374  0.11798097  0.44133550     0.14700
H2594       H  0.83843789  0.19038202  0.36132535     0.00500
H2595       H  0.81218167  0.09856257  0.34103559     0.15000
H2596       H  0.89900815  0.12072363  0.36870450     0.14800
N2597       N  0.53202184  0.23374992  0.28202654    -0.36500
N2598       N  0.49955654  0.24152368  0.35257782    -0.57000
N2599       N  0.95275893  0.27889952  0.28093532    -0.36500
N2600       N  0.49228912  0.25341122  0.22685964    -0.57000
C2601       C  0.54799031  0.22266947  0.30972590     0.27100
C2602       C  0.54689176  0.22898961  0.25138113     0.27100
C2603       C  0.93811196  0.27065393  0.31095449     0.27100
C2604       C  0.93382597  0.27459855  0.25272621     0.27100
C2605       C  0.52649494  0.25477655  0.35364813     0.35700
C2606       C  0.98171475  0.26267643  0.34821865     0.35700
C2607       C  0.51745228  0.25832508  0.20916291     0.35700
C2608       C  0.97180616  0.27021308  0.20772307     0.35700
C2609       C  0.56949543  0.20481643  0.29558564    -0.21800
C2610       C  0.56987826  0.21029902  0.25874410    -0.21800
C2611       C  0.90863657  0.26565606  0.30231466    -0.21800
C2612       C  0.90598024  0.26807758  0.26543878    -0.21800
C2613       C  0.52429058  0.28581655  0.35392496    -0.22800
C2614       C  0.99566868  0.29052048  0.34707638    -0.22800
C2615       C  0.51258314  0.27559107  0.17869556    -0.22800
C2616       C  0.98279104  0.28375106  0.17717972    -0.22800
C2617       C  0.55161342  0.23989712  0.34212197    -0.18200
C2618       C  0.54472249  0.24815037  0.22129097    -0.18200
C2619       C  0.94242024  0.26839062  0.21694647    -0.18200
C2620       C  0.95214160  0.25679758  0.34033372    -0.18200
H2621       H  0.58736142  0.19551456  0.31082347     0.14700
H2622       H  0.58761720  0.20512374  0.24093280     0.14700
H2623       H  0.89178321  0.25668484  0.31983555     0.14700
H2624       H  0.88675085  0.26138955  0.24943777     0.14700
H2625       H  0.54193189  0.30240568  0.35147955     0.13000
H2626       H  0.98567163  0.31189027  0.34247611     0.13000
H2627       H  0.52845174  0.28294151  0.15894714     0.13000
H2628       H  0.97107395  0.29704073  0.15769301     0.13000
H2629       H  0.51686701  0.25058797  0.28501185     0.26300
H2630       H  0.97547559  0.28153101  0.27910050     0.26300
N2631       N  0.69680872  0.16263697  0.25265995    -0.36500
N2632       N  0.74105820  0.15959195  0.31035934    -0.57000
N2633       N  0.78734780  0.15562781  0.25573509    -0.36500
N2634       N  0.74425099  0.16151240  0.19711180    -0.57000
C2635       C  0.68118620  0.17388394  0.28063872     0.27100
C2636       C  0.68301422  0.16993510  0.22106506     0.27100
C2637       C  0.80418359  0.15987538  0.28587975     0.27100
C2638       C  0.80465047  0.16185367  0.22709449     0.27100
C2639       C  0.71792939  0.16800242  0.33104965     0.35700
C2640       C  0.76547709  0.15795714  0.33241669     0.35700
C2641       C  0.71996749  0.15077698  0.17903802     0.35700
C2642       C  0.76768977  0.14985714  0.18005522     0.35700
C2643       C  0.65793200  0.18959650  0.26630449    -0.21800
C2644       C  0.65896296  0.18696734  0.22904035    -0.21800
C2645       C  0.83213120  0.16953485  0.27642997    -0.21800
C2646       C  0.83210769  0.17139557  0.23939590    -0.21800
C2647       C  0.72958510  0.17504132  0.36524965    -0.22800
C2648       C  0.75824140  0.16637820  0.36681888    -0.22800
C2649       C  0.72845963  0.13151045  0.15201690    -0.22800
C2650       C  0.75847324  0.13176536  0.15149616    -0.22800
C2651       C  0.68731298  0.17048789  0.31867831    -0.18200
C2652       C  0.69063219  0.15948706  0.18570313    -0.18200
C2653       C  0.79729953  0.15481841  0.19070436    -0.18200
C2654       C  0.79535033  0.15448667  0.32160721    -0.18200
H2655       H  0.64215716  0.20235721  0.28110994     0.14700
H2656       H  0.64382392  0.19679317  0.21000983     0.14700
H2657       H  0.85045685  0.17537012  0.29427259     0.14700
H2658       H  0.85012488  0.17915965  0.22338780     0.14700
H2659       H  0.72139259  0.19009656  0.38522007     0.13000
H2660       H  0.77306772  0.16978462  0.38965485     0.13000
H2661       H  0.71464540  0.11690302  0.13627655     0.13000
H2662       H  0.77179576  0.11849068  0.13385031     0.13000
H2663       H  0.71400913  0.14787796  0.25474727     0.26300
H2664       H  0.76660393  0.14522145  0.25471531     0.26300
C2665       C  0.89835425  0.20477030  0.38443580    -0.05700
C2666       C  0.89821015  0.18023500  0.36025162     0.00300
C2667       C  0.92282469  0.17714921  0.33704635    -0.08300
C2668       C  0.94092031  0.20266565  0.33148931    -0.05700
C2669       C  0.93845777  0.22840342  0.35289966     0.00300
C2670       C  0.91960053  0.22800735  0.38246651    -0.08200
C2671       C  0.92254787  0.25213825  0.41125692     0.62200
H2672       H  0.88216617  0.20541918  0.40531302     0.12900
H2673       H  0.95733768  0.20282617  0.31060970     0.12900
C2674       C  0.93223263  0.14754560  0.32050110     0.62400
F2675       F  0.91802376  0.27954778  0.39579243    -0.22800
F2676       F  0.95058839  0.25217778  0.42613664    -0.20100
F2677       F  0.90281500  0.24775421  0.43882510    -0.19800
F2678       F  0.90893828  0.13208007  0.30383217    -0.19800
F2679       F  0.94432295  0.13008241  0.34725596    -0.20100
F2680       F  0.95381018  0.15196527  0.29504411    -0.22800
C2681       C  0.88944992  0.22341478  0.15555234    -0.05700
C2682       C  0.89005727  0.19544060  0.17225550     0.00300
C2683       C  0.90914740  0.19155754  0.20237832    -0.08300
C2684       C  0.92777906  0.21543290  0.21331238    -0.05700
C2685       C  0.92557663  0.24391092  0.19828070     0.00300
C2686       C  0.90609342  0.24807582  0.16909324    -0.08200
C2687       C  0.90146261  0.27761666  0.15145214     0.62200
H2688       H  0.87529682  0.22631974  0.13214750     0.12900
H2689       H  0.94258323  0.21255650  0.23627032     0.12900
C2690       C  0.90912162  0.16491317  0.22729356     0.62400
F2691       F  0.87175738  0.28248741  0.15103317    -0.22800
F2692       F  0.91148995  0.27583599  0.11642332    -0.20100
F2693       F  0.91545969  0.30160096  0.16909670    -0.19800
F2694       F  0.93662134  0.15266783  0.22745175    -0.19800
F2695       F  0.88861414  0.14251062  0.21918469    -0.20100
F2696       F  0.90290658  0.17558141  0.26136909    -0.22800
C2697       C  0.58241655  0.25466233  0.17443698    -0.05700
C2698       C  0.57130957  0.26413294  0.20754928     0.00300
C2699       C  0.58076088  0.29252299  0.22216733    -0.08300
C2700       C  0.60293358  0.30890865  0.20448425    -0.05700
C2701       C  0.61230054  0.30064249  0.17000034     0.00300
C2702       C  0.60043936  0.27382749  0.15379803    -0.08200
C2703       C  0.60291898  0.26552945  0.11426287     0.62200
H2704       H  0.57362306  0.23395015  0.16238153     0.12900
H2705       H  0.61058680  0.33042917  0.21540066     0.12900
C2706       C  0.56435877  0.30830031  0.25208051     0.62400
F2707       F  0.57513700  0.26065138  0.09931396    -0.22800
F2708       F  0.61802148  0.23939103  0.11165595    -0.20100
F2709       F  0.61669644  0.28736364  0.09414320    -0.19800
F2710       F  0.55904587  0.28953245  0.28055358    -0.19800
F2711       F  0.53784716  0.31782427  0.23849014    -0.20100
F2712       F  0.57993263  0.33316219  0.26562052    -0.22800
C2713       C  0.60548210  0.29497508  0.38556567    -0.05700
C2714       C  0.62126094  0.30357908  0.35492117     0.00300
C2715       C  0.62134760  0.28480143  0.32435451    -0.08300
C2716       C  0.60084086  0.26107161  0.32266189    -0.05700
C2717       C  0.58109104  0.25478590  0.35105759     0.00300
C2718       C  0.58641880  0.26978410  0.38477610    -0.08200
C2719       C  0.57146822  0.26149147  0.41984486     0.62200
H2720       H  0.60775143  0.30835318  0.41017680     0.12900
H2721       H  0.59842130  0.25043058  0.29684009     0.12900
C2722       C  0.64124957  0.29109191  0.29243572     0.62400
F2723       F  0.59251155  0.25765740  0.44663131    -0.22800
F2724       F  0.55490883  0.23520822  0.41698521    -0.20100
F2725       F  0.55349078  0.28432353  0.43037025    -0.19800
F2726       F  0.67028778  0.28879369  0.30286749    -0.19800
F2727       F  0.63672660  0.31959124  0.27985409    -0.20100
F2728       F  0.63608049  0.27107240  0.26403736    -0.22800
C2729       C  0.70395960  0.11285099  0.40628357    -0.05700
C2730       C  0.67699433  0.10881267  0.38769670     0.00300
C2731       C  0.67318330  0.08363876  0.36312977    -0.08300
C2732       C  0.69240383  0.06025950  0.36658571    -0.05700
C2733       C  0.71674209  0.06319748  0.38904469     0.00300
C2734       C  0.72509976  0.09102320  0.40455361    -0.08200
C2735       C  0.75645383  0.09738719  0.41718207     0.62200
H2736       H  0.70852241  0.13287679  0.42231784     0.12900
H2737       H  0.68743119  0.03867311  0.35378312     0.12900
C2738       C  0.65039258  0.07994437  0.33283142     0.62400
F2739       F  0.77442320  0.09438903  0.38794465    -0.22800
F2740       F  0.76501822  0.07746730  0.44325723    -0.20100
F2741       F  0.76048805  0.12617797  0.43087431    -0.19800
F2742       F  0.65887399  0.05918121  0.30717499    -0.19800
F2743       F  0.64734659  0.10634784  0.31466036    -0.20100
F2744       F  0.62394530  0.06975337  0.34625300    -0.22800
C2745       C  0.70348605  0.11345377  0.06074913    -0.05700
C2746       C  0.68314775  0.10297404  0.08561265     0.00300
C2747       C  0.68478973  0.07286314  0.09851628    -0.08300
C2748       C  0.70523790  0.05390443  0.08285599    -0.05700
C2749       C  0.72485082  0.06446568  0.05700741     0.00300
C2750       C  0.72511813  0.09513222  0.04747835    -0.08200
C2751       C  0.74569996  0.10899901  0.02052268     0.62200
H2752       H  0.70256704  0.13644962  0.05160059     0.12900
H2753       H  0.70507914  0.03026327  0.08933248     0.12900
C2754       C  0.66605490  0.06019635  0.12884334     0.62400
F2755       F  0.75552080  0.13687158  0.03307626    -0.22800
F2756       F  0.73022675  0.11269000  0.98861592    -0.20100
F2757       F  0.76990659  0.09179697  0.01452253    -0.19800
F2758       F  0.63843500  0.05188467  0.11565051    -0.19800
F2759       F  0.66381705  0.08093970  0.15662036    -0.20100
F2760       F  0.67828107  0.03490431  0.14354981    -0.22800
C2761       C  0.79805263  0.43412684  0.05006270    -0.05700
C2762       C  0.82310687  0.44704342  0.03339767     0.00300
C2763       C  0.84920490  0.43066578  0.03260824    -0.08300
C2764       C  0.84929945  0.40275764  0.04956889    -0.05700
C2765       C  0.82624973  0.39269012  0.07196855     0.00300
C2766       C  0.79949697  0.40766670  0.07051442    -0.08200
C2767       C  0.77300256  0.39618734  0.09099483     0.62200
H2768       H  0.77759420  0.44578323  0.04853534     0.12900
H2769       H  0.86950308  0.39081024  0.05020672     0.12900
C2770       C  0.87788500  0.44321135  0.01729273     0.62400
F2771       F  0.74962197  0.41513939  0.08774216    -0.22800
F2772       F  0.77991949  0.39369917  0.12739526    -0.20100
F2773       F  0.76419131  0.36840308  0.07720027    -0.19800
F2774       F  0.88195902  0.47322327  0.02630404    -0.19800
F2775       F  0.87771542  0.43982161  0.98009724    -0.20100
F2776       F  0.90191197  0.42845758  0.03096942    -0.22800
C2777       C  0.79095209  0.38644295  0.36435116    -0.05700
C2778       C  0.79657937  0.37347598  0.39809794     0.00300
C2779       C  0.78682938  0.38785658  0.42950726    -0.08300
C2780       C  0.77921550  0.41796033  0.42661612    -0.05700
C2781       C  0.78659887  0.43346040  0.39496798     0.00300
C2782       C  0.78648540  0.41708245  0.36202679    -0.08200
C2783       C  0.78395062  0.43150619  0.32499971     0.62200
H2784       H  0.79716177  0.37493794  0.34012790     0.12900
H2785       H  0.77291703  0.43046454  0.45037777     0.12900
C2786       C  0.78851091  0.37278429  0.46594756     0.62400
F2787       F  0.78241877  0.41024695  0.29740416    -0.22800
F2788       F  0.80789322  0.45034068  0.31893001    -0.20100
F2789       F  0.75856925  0.44765448  0.32299094    -0.19800
F2790       F  0.81743055  0.36746071  0.47506379    -0.19800
F2791       F  0.77280654  0.34581020  0.46436284    -0.20100
F2792       F  0.77691591  0.39036252  0.49289126    -0.22800
C2793       C  0.58858324  0.44165150  0.09593683    -0.05700
C2794       C  0.57570790  0.44823648  0.12946647     0.00300
C2795       C  0.58733440  0.43450282  0.16092625    -0.08300
C2796       C  0.60922581  0.41326106  0.15687668    -0.05700
C2797       C  0.61964996  0.40357996  0.12294930     0.00300
C2798       C  0.61075264  0.42019476  0.09195506    -0.08200
C2799       C  0.62379919  0.41646348  0.05476792     0.62200
H2800       H  0.58043142  0.45294294  0.07217633     0.12900
H2801       H  0.61695637  0.40192331  0.18076146     0.12900
C2802       C  0.57598775  0.44047818  0.19881956     0.62400
F2803       F  0.61802794  0.44065407  0.03282195    -0.22800
F2804       F  0.61160139  0.39115667  0.03788938    -0.20100
F2805       F  0.65401221  0.41486167  0.05762570    -0.19800
F2806       F  0.54656024  0.43212295  0.20036560    -0.19800
F2807       F  0.57988451  0.47056376  0.20755312    -0.20100
F2808       F  0.59062036  0.42444456  0.22507312    -0.22800
C2809       C  0.55311013  0.09798076  0.16062544    -0.05700
C2810       C  0.54455612  0.08364482  0.12765813     0.00300
C2811       C  0.55236346  0.09823876  0.09484135    -0.08300
C2812       C  0.57273881  0.12263069  0.09661748    -0.05700
C2813       C  0.58634215  0.13210753  0.12952120     0.00300
C2814       C  0.57238774  0.12327958  0.16176930    -0.08200
C2815       C  0.57421850  0.14178898  0.19623855     0.62200
H2816       H  0.54444529  0.08968551  0.18589300     0.12900
H2817       H  0.58147680  0.13158766  0.07174903     0.12900
C2818       C  0.54070518  0.08790219  0.05784367     0.62400
F2819       F  0.54625296  0.14619700  0.20888680    -0.22800
F2820       F  0.58684952  0.16980427  0.19015974    -0.20100
F2821       F  0.59000315  0.12699291  0.22250606    -0.19800
F2822       F  0.51034130  0.08671471  0.05780288    -0.19800
F2823       F  0.55120531  0.05996505  0.04943791    -0.20100
F2824       F  0.54933049  0.10729161  0.03068216    -0.22800
C2825       C  0.90540708  0.05458817  0.10128516    -0.05700
C2826       C  0.92105924  0.04932690  0.13390571     0.00300
C2827       C  0.90999217  0.06188033  0.16645464    -0.08300
C2828       C  0.88624375  0.08125993  0.16414540    -0.05700
C2829       C  0.87408499  0.09054776  0.13092291     0.00300
C2830       C  0.88107297  0.07365448  0.09961625    -0.08200
C2831       C  0.86165986  0.07174726  0.06595389     0.62200
H2832       H  0.91182470  0.04321651  0.07673391     0.12900
H2833       H  0.87879476  0.09204625  0.18850367     0.12900
C2834       C  0.92349421  0.05648322  0.20372526     0.62400
F2835       F  0.85871926  0.04220476  0.05433103    -0.22800
F2836       F  0.87417956  0.08841705  0.03855975    -0.20100
F2837       F  0.83369271  0.08140139  0.07268002    -0.19800
F2838       F  0.95204432  0.06790993  0.20520851    -0.19800
F2839       F  0.92298873  0.02609667  0.21085197    -0.20100
F2840       F  0.90836770  0.07037327  0.23108858    -0.22800
C2841       C  0.93023733  0.42277707  0.17001591    -0.05700
C2842       C  0.95138819  0.42136777  0.14317726     0.00300
C2843       C  0.95412345  0.39437968  0.12350565    -0.08300
C2844       C  0.93268805  0.37126140  0.12784607    -0.05700
C2845       C  0.90789617  0.37467168  0.15011395     0.00300
C2846       C  0.90861156  0.40003280  0.17455018    -0.08200
C2847       C  0.88667651  0.40454488  0.20484380     0.62200
H2848       H  0.92989773  0.44300441  0.18639640     0.12900
H2849       H  0.93441897  0.35168083  0.11102540     0.12900
C2850       C  0.97914604  0.39015208  0.09747782     0.62400
F2851       F  0.88897627  0.38177609  0.22970527    -0.22800
F2852       F  0.85830172  0.40551731  0.19134265    -0.20100
F2853       F  0.89209579  0.43116601  0.22371194    -0.19800
F2854       F  0.00549213  0.39941877  0.11370206    -0.19800
F2855       F  0.97445268  0.40677188  0.06664722    -0.20100
F2856       F  0.98151952  0.36038565  0.08727447    -0.22800
C2857       C  0.57764050  0.11386465  0.33151140    -0.05700
C2858       C  0.57880771  0.13573119  0.35947717     0.00300
C2859       C  0.55738256  0.13148550  0.38739222    -0.08300
C2860       C  0.54181471  0.10365876  0.39053624    -0.05700
C2861       C  0.54376651  0.08050593  0.36500123     0.00300
C2862       C  0.56076412  0.08657169  0.33355916    -0.08200
C2863       C  0.56288952  0.06368723  0.30297946     0.62200
H2864       H  0.59245426  0.11688046  0.30928544     0.12900
H2865       H  0.52729970  0.10003149  0.41310485     0.12900
C2866       C  0.54767577  0.15690267  0.41144581     0.62400
F2867       F  0.58277616  0.07272995  0.27706139    -0.22800
F2868       F  0.53583947  0.05968126  0.28584123    -0.20100
F2869       F  0.57198404  0.03664234  0.31661082    -0.19800
F2870       F  0.54462665  0.18227011  0.39078607    -0.19800
F2871       F  0.56744316  0.16198692  0.43967113    -0.20100
F2872       F  0.52056191  0.15068702  0.42652599    -0.22800
C2873       C  0.59852722  0.45425451  0.36602327    -0.05700
C2874       C  0.57421101  0.44715804  0.38733969     0.00300
C2875       C  0.57686242  0.42289580  0.41206734    -0.08300
C2876       C  0.60202752  0.40522728  0.41107473    -0.05700
C2877       C  0.62564682  0.41048507  0.38749461     0.00300
C2878       C  0.62472507  0.43773442  0.36690721    -0.08200
C2879       C  0.65068691  0.45135106  0.34707573     0.62200
H2880       H  0.59694202  0.47357805  0.34864682     0.12900
H2881       H  0.60220125  0.38537686  0.42774314     0.12900
C2882       C  0.55413312  0.41279873  0.43941557     0.62400
F2883       F  0.64665430  0.48122966  0.33902659    -0.22800
F2884       F  0.65428167  0.43640531  0.31459720    -0.20100
F2885       F  0.67568447  0.45068224  0.36877706    -0.19800
F2886       F  0.54636587  0.38296323  0.43301214    -0.19800
F2887       F  0.52889712  0.42884063  0.43865654    -0.20100
F2888       F  0.56638992  0.41539550  0.47385652    -0.22800
C2889       C  0.92737214  0.37035974  0.38262164    -0.05700
C2890       C  0.89925605  0.37719688  0.36860277     0.00300
C2891       C  0.89566531  0.40727457  0.35603215    -0.08300
C2892       C  0.91756641  0.42925983  0.36399233    -0.05700
C2893       C  0.94399271  0.42287800  0.38143156     0.00300
C2894       C  0.94957517  0.39267120  0.38959775    -0.08200
C2895       C  0.97862226  0.38413903  0.40609814     0.62200
H2896       H  0.93218069  0.34746179  0.38866336     0.12900
H2897       H  0.91411360  0.45220378  0.35571164     0.12900
C2898       C  0.86933348  0.41912513  0.33549420     0.62400
F2899       F  0.98178092  0.39771460  0.43975177    -0.22800
F2900       F  0.00120085  0.39352253  0.38394348    -0.20100
F2901       F  0.98045554  0.35346444  0.41055621    -0.19800
F2902       F  0.85579313  0.43980741  0.35721846    -0.19800
F2903       F  0.84889744  0.39757376  0.32460266    -0.20100
F2904       F  0.87890652  0.43346583  0.30461123    -0.22800
C2905       C  0.89996477  0.04731045  0.34906474    -0.05700
C2906       C  0.91621470  0.04264958  0.38090360     0.00300
C2907       C  0.90343757  0.05205629  0.41424227    -0.08300
C2908       C  0.87785875  0.06948045  0.41339081    -0.05700
C2909       C  0.86403820  0.07822218  0.38093614     0.00300
C2910       C  0.87376309  0.06370781  0.34834460    -0.08200
C2911       C  0.85730126  0.06534336  0.31222799     0.62200
H2912       H  0.90846405  0.03846708  0.32410134     0.12900
H2913       H  0.87020259  0.07862912  0.43846039     0.12900
C2914       C  0.91681155  0.04496578  0.45110382     0.62400
F2915       F  0.86948151  0.04748223  0.28591723    -0.22800
F2916       F  0.85770777  0.09428549  0.29929945    -0.20100
F2917       F  0.82874469  0.05492119  0.31631722    -0.19800
F2918       F  0.94389959  0.05952050  0.45526553    -0.19800
F2919       F  0.91974397  0.01432542  0.45429517    -0.20100
F2920       F  0.89949868  0.05417029  0.47932624    -0.22800
O2921       O  0.51974681  0.03557982  0.84326184    -0.72800
O2922       O  0.97443859  0.45996822  0.84988121    -0.73800
O2923       O  0.95717546  0.02084389  0.85009625    -0.62400
O2924       O  0.53641845  0.47399354  0.85004229    -0.70800
O2925       O  0.53770944  0.48066730  0.90934046    -0.70400
O2926       O  0.96153567  0.02448907  0.90939880    -0.61600
O2927       O  0.97573952  0.46239108  0.90977486    -0.74100
O2928       O  0.52267468  0.04176216  0.90246096    -0.72900
Cu2929     Cu  0.99811012  0.49746638  0.84515349     1.04600
Cu2930     Cu  0.49904701  0.00172603  0.91060151     1.04300
C2931       C  0.52867040  0.05119520  0.87044417     0.93400
C2932       C  0.96651014  0.44952481  0.88016358     0.92500
C2933       C  0.94646659  0.02877572  0.88073353     0.84700
C2934       C  0.54843702  0.46890691  0.88115067     0.90900
O2935       O  0.53956459  0.47995106  0.66257078    -0.72800
O2936       O  0.96405463  0.02441797  0.66280681    -0.73800
O2937       O  0.97782767  0.46460868  0.66168651    -0.62400
O2938       O  0.52367466  0.04021096  0.65821896    -0.70800
O2939       O  0.51995918  0.03833337  0.59870214    -0.70400
O2940       O  0.97378552  0.46032208  0.60204741    -0.61600
O2941       O  0.96042198  0.02276925  0.60331209    -0.74100
O2942       O  0.53693175  0.47579734  0.60309539    -0.72900
Cu2943     Cu  0.00051093  0.50327949  0.65913075     1.04600
Cu2944     Cu  0.49875044  0.49852681  0.60100840     1.04300
C2945       C  0.54988442  0.46977040  0.63306506     0.93400
C2946       C  0.95026240  0.03119576  0.63377593     0.92500
C2947       C  0.96849456  0.45016333  0.63369151     0.84700
C2948       C  0.52869041  0.05214798  0.62762884     0.90900
N2949       N  0.67136722  0.30440223  0.50437316    -0.36500
N2950       N  0.66323627  0.25628178  0.55876389    -0.57000
N2951       N  0.65285930  0.21270133  0.50098621    -0.36500
N2952       N  0.65685428  0.26213762  0.94523913    -0.57000
C2953       C  0.67602124  0.32070706  0.53515017     0.27100
C2954       C  0.67718452  0.32302809  0.97548904     0.27100
C2955       C  0.64615096  0.19580727  0.53031382     0.27100
C2956       C  0.64305942  0.19869444  0.97082255     0.27100
C2957       C  0.67578145  0.27894635  0.57873292     0.35700
C2958       C  0.66849124  0.23039249  0.57637903     0.35700
C2959       C  0.67205301  0.28404280  0.92754857     0.35700
C2960       C  0.65947892  0.23643565  0.92572216     0.35700
C2961       C  0.68578588  0.34933357  0.52605418    -0.21800
C2962       C  0.68801476  0.35041749  0.98883847    -0.21800
C2963       C  0.63104950  0.16993672  0.51865445    -0.21800
C2964       C  0.63010052  0.17161094  0.98100331    -0.21800
C2965       C  0.69043468  0.26681998  0.60817734    -0.22800
C2966       C  0.68496395  0.23635923  0.60735377    -0.22800
C2967       C  0.68576471  0.27097944  0.89829318    -0.22800
C2968       C  0.67633828  0.24170710  0.89582279    -0.22800
C2969       C  0.67249846  0.31009288  0.57115110    -0.18200
C2970       C  0.67348749  0.31524568  0.93795278    -0.18200
C2971       C  0.64716380  0.20806562  0.93446856    -0.18200
C2972       C  0.65565112  0.20217549  0.56666620    -0.18200
H2973       H  0.69318368  0.36717576  0.54436212     0.14700
H2974       H  0.69586011  0.36944956  0.97345391     0.14700
H2975       H  0.62373174  0.15121866  0.53488206     0.14700
H2976       H  0.62033598  0.15440715  0.96347326     0.14700
H2977       H  0.70464180  0.27802854  0.62785782     0.13000
H2978       H  0.69270686  0.22044388  0.62696372     0.13000
H2979       H  0.70312555  0.27981596  0.88196934     0.13000
H2980       H  0.68318761  0.22569422  0.87581178     0.13000
H2981       H  0.66318722  0.28256711  0.50320137     0.26300
H2982       H  0.66710638  0.23132257  0.50078228     0.26300
C2983       C  0.87236919  0.35630373  0.87475578     0.86600
C2984       C  0.87666602  0.32970600  0.90040431    -0.53600
C2985       C  0.85158228  0.31356820  0.90763619     0.09500
C2986       C  0.82441400  0.32512246  0.88781454     0.20500
C2987       C  0.85727955  0.34146237  0.84055448    -0.54400
C2988       C  0.83103240  0.32577195  0.84644417     0.09600
C2989       C  0.84831391  0.37362172  0.89354556    -0.53900
C2990       C  0.82294776  0.35769641  0.89905559     0.10200
H2991       H  0.89672437  0.32527099  0.91493251     0.14700
H2992       H  0.80526253  0.31310613  0.89805549     0.00500
H2993       H  0.86523342  0.34638656  0.81370705     0.15000
H2994       H  0.84977988  0.39773234  0.89811201     0.14800
C2995       C  0.87829340  0.35876494  0.63636873     0.86600
C2996       C  0.85802935  0.34621781  0.66560929    -0.53600
C2997       C  0.83018387  0.33666519  0.65432411     0.09500
C2998       C  0.82655526  0.34006508  0.61172395     0.20500
C2999       C  0.87884875  0.33295262  0.60772606    -0.54400
C3000       C  0.85190501  0.32239407  0.59557608     0.09600
C3001       C  0.86045720  0.38255446  0.61842417    -0.53900
C3002       C  0.83458779  0.37326026  0.60321799     0.10200
H3003       H  0.86505468  0.34681191  0.69340793     0.14700
H3004       H  0.80576123  0.33349943  0.59851177     0.00500
H3005       H  0.89841565  0.32313698  0.59754112     0.15000
H3006       H  0.86954555  0.40506838  0.61403154     0.14800
C3007       C  0.61788802  0.14328861  0.62744363     0.86600
C3008       C  0.63798012  0.14882571  0.66161647    -0.53600
C3009       C  0.66675102  0.15748580  0.65482857     0.09500
C3010       C  0.67233502  0.15882029  0.61321772     0.20500
C3011       C  0.62115540  0.17188173  0.60492825    -0.54400
C3012       C  0.64933400  0.17965497  0.59608007     0.09600
C3013       C  0.63451144  0.11976683  0.60633893    -0.53900
C3014       C  0.66275320  0.12696378  0.59984614     0.10200
H3015       H  0.63144612  0.14313708  0.68862696     0.14700
H3016       H  0.69498364  0.16575334  0.60586905     0.00500
H3017       H  0.60238697  0.18330075  0.59378807     0.15000
H3018       H  0.62455616  0.09862711  0.59715830     0.14800
C3019       C  0.61048187  0.15159479  0.86753012     0.86600
C3020       C  0.61287771  0.17915495  0.89255959    -0.53600
C3021       C  0.64069634  0.18605032  0.90420627     0.09500
C3022       C  0.66424444  0.16653872  0.88682773     0.20500
C3023       C  0.63173329  0.16086575  0.83539430    -0.54400
C3024       C  0.66105442  0.16877007  0.84516006     0.09600
C3025       C  0.62713283  0.12751358  0.88786852    -0.53900
C3026       C  0.65575938  0.13381822  0.89381476     0.10200
H3027       H  0.59491891  0.19268896  0.90069641     0.14700
H3028       H  0.68478594  0.17219574  0.90030331     0.00500
H3029       H  0.62449871  0.15810824  0.80754249     0.15000
H3030       H  0.61754951  0.10571461  0.89397888     0.14800
N3031       N  0.82209859  0.46155537  0.45676925    -0.36500
N3032       N  0.75574529  0.99550800  0.90136328    -0.57000
N3033       N  0.73554389  0.02641338  0.46904117    -0.36500
N3034       N  0.78003577  0.01435791  0.52046953    -0.57000
C3035       C  0.81873672  0.47763969  0.92455137     0.27100
C3036       C  0.82549818  0.48252491  0.48308267     0.27100
C3037       C  0.71951457  0.03467723  0.94023079     0.27100
C3038       C  0.72298553  0.03687724  0.49943987     0.27100
C3039       C  0.78021791  0.48557192  0.88173972     0.35700
C3040       C  0.74966132  0.02247037  0.88862235     0.35700
C3041       C  0.79998990  0.49816751  0.53585490     0.35700
C3042       C  0.76399415  0.03012540  0.54337659     0.35700
C3043       C  0.82436639  0.50817259  0.93048406    -0.21800
C3044       C  0.82771549  0.51074575  0.46787008    -0.21800
C3045       C  0.69324284  0.04481551  0.95326483    -0.21800
C3046       C  0.69447264  0.04509755  0.49143941    -0.21800
C3047       C  0.78666612  0.50708754  0.85619802    -0.22800
C3048       C  0.76784962  0.03060222  0.86050491    -0.22800
C3049       C  0.79768754  0.50558766  0.57212145    -0.22800
C3050       C  0.77584366  0.02842004  0.57813538    -0.22800
C3051       C  0.79961206  0.46602766  0.89659025    -0.18200
C3052       C  0.81825333  0.47733951  0.51959818    -0.18200
C3053       C  0.73770887  0.04355270  0.53279569    -0.18200
C3054       C  0.72960394  0.04026576  0.90517123    -0.18200
H3055       H  0.82027408  0.52637320  0.91213822     0.14700
H3056       H  0.82926680  0.53209865  0.48204007     0.14700
H3057       H  0.67489433  0.05294171  0.93763951     0.14700
H3058       H  0.67903833  0.05516313  0.50952598     0.14700
H3059       H  0.80605036  0.50886126  0.83978434     0.13000
H3060       H  0.76873554  0.05170014  0.84630482     0.13000
H3061       H  0.81117912  0.49792498  0.59434242     0.12200
H3062       H  0.76740401  0.03820584  0.60262146     0.13000
H3063       H  0.82041639  0.43864640  0.46148549     0.26300
H3064       H  0.75765965  0.02248759  0.46512928     0.26300
N3065       N  0.83635055  0.19227768  0.50673282    -0.36500
N3066       N  0.84100814  0.23714130  0.94950689    -0.57000
N3067       N  0.84853789  0.28458384  0.50314903    -0.36500
N3068       N  0.84295217  0.24206581  0.56170151    -0.57000
C3069       C  0.83018166  0.17470182  0.97750918     0.27100
C3070       C  0.83009804  0.17708306  0.53741441     0.27100
C3071       C  0.85686968  0.29988484  0.97350364     0.27100
C3072       C  0.85752538  0.30155374  0.53216110     0.27100
C3073       C  0.82868029  0.21348039  0.93089757     0.35700
C3074       C  0.83717789  0.26185996  0.92906136     0.35700
C3075       C  0.83012056  0.21967855  0.58096125     0.35700
C3076       C  0.83695673  0.26833959  0.57866246     0.35700
C3077       C  0.81824580  0.14795330  0.99007508    -0.21800
C3078       C  0.81838380  0.14905677  0.52786515    -0.21800
C3079       C  0.87169809  0.32638984  0.98384852    -0.21800
C3080       C  0.87358825  0.32619062  0.52035750    -0.21800
C3081       C  0.81492720  0.22396329  0.90007280    -0.22800
C3082       C  0.82193295  0.25384354  0.89764676    -0.22800
C3083       C  0.81435205  0.23213641  0.60884145    -0.22800
C3084       C  0.81972118  0.26266444  0.60834404    -0.22800
C3085       C  0.83194049  0.18267283  0.94020937    -0.18200
C3086       C  0.83290904  0.18835304  0.57373306    -0.18200
C3087       C  0.84836504  0.29690883  0.56820642    -0.18200
C3088       C  0.84924193  0.29089434  0.93737166    -0.18200
H3089       H  0.80786618  0.12988318  0.97448341     0.14700
H3090       H  0.80919129  0.13236461  0.54581160     0.14700
H3091       H  0.88082553  0.34392814  0.96723146     0.14700
H3092       H  0.88375520  0.34394332  0.53655933     0.14700
H3093       H  0.80157565  0.21165756  0.88041625     0.13000
H3094       H  0.81639070  0.26750931  0.87482846     0.13000
H3095       H  0.79923885  0.22074369  0.62670519     0.13000
H3096       H  0.81135038  0.27870241  0.62726074     0.13000
H3097       H  0.84665831  0.21329619  0.50598746     0.26300
H3098       H  0.83323713  0.26679168  0.50367725     0.26300
N3099       N  0.79960775  0.32784555  0.74968733    -0.36500
N3100       N  0.75811067  0.33961784  0.80789119    -0.57000
N3101       N  0.71341171  0.35201842  0.75395362    -0.36500
N3102       N  0.75475173  0.34109465  0.69522430    -0.57000
C3103       C  0.81580682  0.31926367  0.77893136     0.27100
C3104       C  0.81488285  0.32189113  0.71920720     0.27100
C3105       C  0.69989623  0.36200748  0.78416423     0.27100
C3106       C  0.69628838  0.35845200  0.72488185     0.27100
C3107       C  0.77727521  0.32150235  0.82456525     0.35700
C3108       C  0.73448706  0.34125317  0.82941242     0.35700
C3109       C  0.77588715  0.33084502  0.67308981     0.35700
C3110       C  0.72911834  0.34028234  0.67594131     0.35700
C3111       C  0.84111887  0.30673645  0.76696810    -0.21800
C3112       C  0.84036756  0.30764932  0.72960967    -0.21800
C3113       C  0.67371660  0.37473057  0.77384753    -0.21800
C3114       C  0.67127750  0.37217223  0.73689393    -0.21800
C3115       C  0.76444943  0.31000211  0.85524924    -0.22800
C3116       C  0.73914827  0.32495665  0.86034393    -0.22800
C3117       C  0.76297827  0.32209706  0.64041228    -0.22800
C3118       C  0.73416740  0.32965897  0.64149638    -0.22800
C3119       C  0.80757833  0.32065854  0.81607870    -0.18200
C3120       C  0.80631765  0.32889263  0.68247355    -0.18200
C3121       C  0.70144887  0.34990572  0.68830882    -0.18200
C3122       C  0.70831211  0.35598924  0.82069259    -0.18200
H3123       H  0.85763159  0.29688888  0.78381928     0.14700
H3124       H  0.85665076  0.29833227  0.71219647     0.14700
H3125       H  0.65664718  0.38282260  0.79094983     0.14700
H3126       H  0.65228894  0.37854725  0.72132051     0.14700
H3127       H  0.77146603  0.29159736  0.87158534     0.13000
H3128       H  0.72567877  0.32324669  0.88390784     0.13000
H3129       H  0.77181249  0.30886020  0.61898332     0.13000
H3130       H  0.71879980  0.32686351  0.61928126     0.13000
H3131       H  0.78080264  0.34008940  0.75076204     0.26300
H3132       H  0.73105089  0.33799738  0.75319787     0.26300
C3133       C  0.64636813  0.38507398  0.88113917     0.86600
C3134       C  0.65683042  0.36761012  0.91567935    -0.53600
C3135       C  0.66949339  0.33995584  0.90915503     0.09500
C3136       C  0.67047387  0.33370679  0.86789601     0.20500
C3137       C  0.67440587  0.38716564  0.85807563    -0.54400
C3138       C  0.68616692  0.36027501  0.84996822     0.09600
C3139       C  0.62640709  0.36141388  0.86141402    -0.53900
C3140       C  0.63890496  0.33461127  0.85540280     0.10200
H3141       H  0.65150283  0.37524438  0.94261600     0.14700
H3142       H  0.67968631  0.31305971  0.85861989     0.00500
H3143       H  0.68474630  0.40705445  0.84772197     0.15000
H3144       H  0.60305288  0.36433113  0.85679819     0.14800
C3145       C  0.63700905  0.37528026  0.62714796     0.86600
C3146       C  0.66378806  0.37807333  0.65291482    -0.53600
C3147       C  0.67646723  0.35172346  0.66134032     0.09500
C3148       C  0.66187221  0.32435515  0.64171111     0.20500
C3149       C  0.64883558  0.35863627  0.59343602    -0.54400
C3150       C  0.66287504  0.33189812  0.60069778     0.09600
C3151       C  0.61660832  0.35103223  0.64305635    -0.53900
C3152       C  0.62922933  0.32481502  0.65073835     0.10200
H3153       H  0.67159770  0.39938334  0.66447576     0.14700
H3154       H  0.67110573  0.30337581  0.65102056     0.00500
H3155       H  0.64364446  0.36524906  0.56626710     0.15000
H3156       H  0.59356112  0.35449572  0.64849618     0.14800
C3157       C  0.86032674  0.12139682  0.63298284     0.86600
C3158       C  0.83324614  0.12145608  0.65792225    -0.53600
C3159       C  0.82234718  0.14919484  0.66476138     0.09500
C3160       C  0.83944874  0.17452460  0.64573574     0.20500
C3161       C  0.85067621  0.13845399  0.59866308    -0.54400
C3162       C  0.83878876  0.16637484  0.60459831     0.09600
C3163       C  0.88243486  0.14407280  0.64976670    -0.53900
C3164       C  0.87161782  0.17114590  0.65756126     0.10200
H3165       H  0.82419341  0.10127931  0.67020603     0.14700
H3166       H  0.83188411  0.19655747  0.65413075     0.00500
H3167       H  0.85713356  0.13152070  0.57213612     0.15000
H3168       H  0.90534579  0.13913097  0.65492622     0.14800
C3169       C  0.85221699  0.11077198  0.88059579     0.86600
C3170       C  0.84369760  0.12873940  0.91554528    -0.53600
C3171       C  0.83720652  0.15893840  0.91018376     0.09500
C3172       C  0.84146314  0.16720345  0.86960554     0.20500
C3173       C  0.82627245  0.11619155  0.85426618    -0.54400
C3174       C  0.81996156  0.14550445  0.84857847     0.09600
C3175       C  0.87801924  0.12937505  0.86745046    -0.53900
C3176       C  0.87342846  0.15836277  0.86154680     0.10200
H3177       H  0.84522270  0.11885075  0.94190470     0.14700
H3178       H  0.83919547  0.19037090  0.86086844     0.00500
H3179       H  0.81301635  0.09841232  0.84176207     0.15000
H3180       H  0.89987513  0.12080447  0.86934150     0.14800
N3181       N  0.53156530  0.23597416  0.77994521    -0.36500
N3182       N  0.49943954  0.24508066  0.84920783    -0.57000
N3183       N  0.95223584  0.27960906  0.78405524    -0.36500
N3184       N  0.49161840  0.25485020  0.72311341    -0.57000
C3185       C  0.54789439  0.22549668  0.80775585     0.27100
C3186       C  0.54598652  0.23028237  0.74927323     0.27100
C3187       C  0.93797700  0.27151852  0.81442369     0.27100
C3188       C  0.93298086  0.27493395  0.75623730     0.27100
C3189       C  0.52643496  0.25820383  0.85089615     0.35700
C3190       C  0.98211296  0.26287677  0.85033175     0.35700
C3191       C  0.51702048  0.25919506  0.70584371     0.35700
C3192       C  0.97015389  0.27077100  0.71007402     0.35700
C3193       C  0.56919178  0.20722271  0.79396298    -0.21800
C3194       C  0.56906603  0.21177092  0.75696219    -0.21800
C3195       C  0.90839731  0.26644572  0.80634613    -0.21800
C3196       C  0.90537186  0.26831540  0.76949100    -0.21800
C3197       C  0.52434207  0.28925107  0.85022026    -0.22800
C3198       C  0.99602955  0.29076973  0.85049116    -0.22800
C3199       C  0.51279287  0.27635787  0.67507307    -0.22800
C3200       C  0.98008266  0.28240222  0.67786826    -0.22800
C3201       C  0.55156095  0.24305351  0.83986192    -0.18200
C3202       C  0.54401505  0.24901466  0.71887133    -0.18200
C3203       C  0.94103349  0.26873587  0.72026725    -0.18200
C3204       C  0.95236315  0.25733016  0.84327471    -0.18200
H3205       H  0.58714483  0.19797658  0.80921670     0.14700
H3206       H  0.58655414  0.20609565  0.73899938     0.14700
H3207       H  0.89175402  0.25749030  0.82416414     0.14700
H3208       H  0.88606822  0.26120699  0.75387539     0.14700
H3209       H  0.54212598  0.30572158  0.84810501     0.13000
H3210       H  0.98593025  0.31230136  0.84773068     0.13000
H3211       H  0.52901098  0.28342409  0.65562118     0.13000
H3212       H  0.96774750  0.29450919  0.65782234     0.13000
H3213       H  0.51649476  0.25297115  0.78235314     0.26300
H3214       H  0.97492438  0.28231514  0.78182011     0.26300
N3215       N  0.69715100  0.16257619  0.75219545    -0.36500
N3216       N  0.74148286  0.15903454  0.81043685    -0.57000
N3217       N  0.78781256  0.15480195  0.75597488    -0.36500
N3218       N  0.74452466  0.16101661  0.69754580    -0.57000
C3219       C  0.68151552  0.17363325  0.78033857     0.27100
C3220       C  0.68309192  0.16974950  0.72066596     0.27100
C3221       C  0.80457104  0.15942154  0.78612671     0.27100
C3222       C  0.80506287  0.16139310  0.72743139     0.27100
C3223       C  0.71839980  0.16804490  0.83083487     0.35700
C3224       C  0.76592686  0.15782997  0.83256311     0.35700
C3225       C  0.72043880  0.15235296  0.67748906     0.35700
C3226       C  0.76828251  0.15094683  0.67951286     0.35700
C3227       C  0.65805617  0.18911202  0.76614916    -0.21800
C3228       C  0.65888162  0.18645971  0.72891865    -0.21800
C3229       C  0.83232847  0.16969281  0.77676762    -0.21800
C3230       C  0.83230008  0.17152981  0.73977511    -0.21800
C3231       C  0.73008041  0.17585662  0.86478753    -0.22800
C3232       C  0.75875258  0.16720247  0.86662967    -0.22800
C3233       C  0.72962875  0.13625104  0.64789532    -0.22800
C3234       C  0.75955620  0.13623106  0.64823070    -0.22800
C3235       C  0.68778356  0.17048296  0.81843964    -0.18200
C3236       C  0.69073718  0.16001942  0.68492051    -0.18200
C3237       C  0.79786297  0.15469430  0.69097378    -0.18200
C3238       C  0.79580873  0.15412222  0.82184264    -0.18200
H3239       H  0.64231618  0.20187250  0.78101151     0.14700
H3240       H  0.64359246  0.19627119  0.71006276     0.14700
H3241       H  0.85044917  0.17611905  0.79465677     0.14700
H3242       H  0.85006122  0.17995211  0.72381846     0.14700
H3243       H  0.72182403  0.19138457  0.88420217     0.13000
H3244       H  0.77364890  0.17122824  0.88926243     0.13000
H3245       H  0.71656137  0.12405033  0.62896804     0.13000
H3246       H  0.77314928  0.12515120  0.62875056     0.13000
H3247       H  0.71462714  0.14815578  0.75419087     0.26300
H3248       H  0.76721899  0.14406237  0.75488210     0.26300
C3249       C  0.89867331  0.20426283  0.88570428    -0.05700
C3250       C  0.89902232  0.18006315  0.86119669     0.00300
C3251       C  0.92390513  0.17740389  0.83838740    -0.08300
C3252       C  0.94206800  0.20304233  0.83380601    -0.05700
C3253       C  0.93887855  0.22866818  0.85527252     0.00300
C3254       C  0.91933516  0.22795796  0.88413952    -0.08200
C3255       C  0.91881680  0.25368260  0.91069088     0.62200
H3256       H  0.88196131  0.20481766  0.90589081     0.12900
H3257       H  0.95888369  0.20346723  0.81341698     0.12900
C3258       C  0.93368011  0.14803070  0.82163707     0.62400
F3259       F  0.90796636  0.27793766  0.89290561    -0.22800
F3260       F  0.94691910  0.26067811  0.92339380    -0.20100
F3261       F  0.90152634  0.24715270  0.94012400    -0.19800
F3262       F  0.91059908  0.13205464  0.80524735    -0.19800
F3263       F  0.94619714  0.13078657  0.84829413    -0.20100
F3264       F  0.95492659  0.15294849  0.79586132    -0.22800
C3265       C  0.88965592  0.22352872  0.65716101    -0.05700
C3266       C  0.89012395  0.19551099  0.67375893     0.00300
C3267       C  0.90842522  0.19165349  0.70461549    -0.08300
C3268       C  0.92621047  0.21580847  0.71671515    -0.05700
C3269       C  0.92404672  0.24431849  0.70173688     0.00300
C3270       C  0.90561206  0.24832432  0.67151770    -0.08200
C3271       C  0.90167892  0.27779227  0.65338115     0.62200
H3272       H  0.87620331  0.22630423  0.63308599     0.12900
H3273       H  0.94055502  0.21297664  0.74012285     0.12900
C3274       C  0.90851829  0.16451974  0.72878630     0.62400
F3275       F  0.87198720  0.28206734  0.64982636    -0.22800
F3276       F  0.91416692  0.27633200  0.61959418    -0.20100
F3277       F  0.91392371  0.30199547  0.67243444    -0.19800
F3278       F  0.93600651  0.15225781  0.72837089    -0.19800
F3279       F  0.88792231  0.14229016  0.72024089    -0.20100
F3280       F  0.90245757  0.17450535  0.76318798    -0.22800
C3281       C  0.58181886  0.25558668  0.67267658    -0.05700
C3282       C  0.57073013  0.26483549  0.70584098     0.00300
C3283       C  0.58016553  0.29305461  0.72089673    -0.08300
C3284       C  0.60313648  0.30888850  0.70426187    -0.05700
C3285       C  0.61231230  0.30107490  0.66959344     0.00300
C3286       C  0.59960099  0.27508564  0.65234954    -0.08200
C3287       C  0.59981938  0.26871260  0.61210922     0.62200
H3288       H  0.57262734  0.23526089  0.66006878     0.12900
H3289       H  0.61129473  0.33000409  0.71579663     0.12900
C3290       C  0.56350525  0.30890726  0.75055881     0.62400
F3291       F  0.57118830  0.26674193  0.59904457    -0.22800
F3292       F  0.61265011  0.24160337  0.60612552    -0.20100
F3293       F  0.61422214  0.29059786  0.59273385    -0.19800
F3294       F  0.56034651  0.29098836  0.78017083    -0.19800
F3295       F  0.53596356  0.31604307  0.73780483    -0.20100
F3296       F  0.57766193  0.33528611  0.76202404    -0.22800
C3297       C  0.60513597  0.29806973  0.88358201    -0.05700
C3298       C  0.62128877  0.30654535  0.85318344     0.00300
C3299       C  0.62179239  0.28735855  0.82283961    -0.08300
C3300       C  0.60154234  0.26327444  0.82125952    -0.05700
C3301       C  0.58120450  0.25754582  0.84916029     0.00300
C3302       C  0.58614912  0.27281933  0.88269120    -0.08200
C3303       C  0.57087206  0.26448767  0.91745380     0.62200
H3304       H  0.60714299  0.31152060  0.90815793     0.12900
H3305       H  0.59963826  0.25190958  0.79577115     0.12900
C3306       C  0.64167873  0.29355367  0.79089415     0.62400
F3307       F  0.59161107  0.26148466  0.94480247    -0.22800
F3308       F  0.55507884  0.23769779  0.91444313    -0.20100
F3309       F  0.55211578  0.28690308  0.92710851    -0.19800
F3310       F  0.67076539  0.29183454  0.80135347    -0.19800
F3311       F  0.63666118  0.32180030  0.77785718    -0.20100
F3312       F  0.63682386  0.27314767  0.76280086    -0.22800
C3313       C  0.70468805  0.11539224  0.90749191    -0.05700
C3314       C  0.67775561  0.11034942  0.88903822     0.00300
C3315       C  0.67471488  0.08530489  0.86406423    -0.08300
C3316       C  0.69603583  0.06369970  0.86527630    -0.05700
C3317       C  0.72025361  0.06735942  0.88785182     0.00300
C3318       C  0.72697035  0.09492767  0.90479904    -0.08200
C3319       C  0.75782533  0.10219173  0.91853044     0.62200
H3320       H  0.70831803  0.13513509  0.92434553     0.12900
H3321       H  0.69238825  0.04217590  0.85179682     0.12900
C3322       C  0.64999103  0.07942234  0.83648268     0.62400
F3323       F  0.77626714  0.10067952  0.88966197    -0.22800
F3324       F  0.76681138  0.08186099  0.94393612    -0.20100
F3325       F  0.76050066  0.13068650  0.93347020    -0.19800
F3326       F  0.65717102  0.05787832  0.81111413    -0.19800
F3327       F  0.64468422  0.10486410  0.81724954    -0.20100
F3328       F  0.62499674  0.06890915  0.85328967    -0.22800
C3329       C  0.70146551  0.11471776  0.55796502    -0.05700
C3330       C  0.68246861  0.10462250  0.58458058     0.00300
C3331       C  0.68596840  0.07549650  0.59962035    -0.08300
C3332       C  0.70624920  0.05645076  0.58384271    -0.05700
C3333       C  0.72444629  0.06640203  0.55616623     0.00300
C3334       C  0.72344219  0.09665326  0.54494760    -0.08200
C3335       C  0.74373719  0.11055104  0.51769793     0.62200
H3336       H  0.69958085  0.13734207  0.54781915     0.12900
H3337       H  0.70718778  0.03322713  0.59198327     0.12900
C3338       C  0.66948078  0.06423099  0.63254166     0.62400
F3339       F  0.75380623  0.13835461  0.53027354    -0.22800
F3340       F  0.72800276  0.11439876  0.48601911    -0.20100
F3341       F  0.76781782  0.09331406  0.51128616    -0.19800
F3342       F  0.64144060  0.05448502  0.62252763    -0.19800
F3343       F  0.66815685  0.08651826  0.65865355    -0.20100
F3344       F  0.68341373  0.04034617  0.64828416    -0.22800
C3345       C  0.79608330  0.43416309  0.55372229    -0.05700
C3346       C  0.82057721  0.44691843  0.53573182     0.00300
C3347       C  0.84632119  0.43014016  0.53298599    -0.08300
C3348       C  0.84643498  0.40161655  0.54839591    -0.05700
C3349       C  0.82431917  0.39163023  0.57211551     0.00300
C3350       C  0.79787289  0.40712145  0.57295817    -0.08200
C3351       C  0.77195509  0.39519533  0.59410355     0.62200
H3352       H  0.77576513  0.44609652  0.55380440     0.12900
H3353       H  0.86634144  0.38916939  0.54710101     0.12900
C3354       C  0.87484726  0.44256866  0.51720160     0.62400
F3355       F  0.74799412  0.41340064  0.59096731    -0.22800
F3356       F  0.77948739  0.39326927  0.63038606    -0.20100
F3357       F  0.76370316  0.36709375  0.58082054    -0.19800
F3358       F  0.87800661  0.47323255  0.52253843    -0.19800
F3359       F  0.87548981  0.43604884  0.48059363    -0.20100
F3360       F  0.89894388  0.42989267  0.53367051    -0.22800
C3361       C  0.79018815  0.38745852  0.86408233    -0.05700
C3362       C  0.79549252  0.37394917  0.89748225     0.00300
C3363       C  0.78591926  0.38816863  0.92900080    -0.08300
C3364       C  0.78141702  0.41902458  0.92733312    -0.05700
C3365       C  0.78846261  0.43448219  0.89543859     0.00300
C3366       C  0.78679511  0.41827100  0.86233464    -0.08200
C3367       C  0.78301568  0.43290077  0.82564092     0.62200
H3368       H  0.79602879  0.37601902  0.83965456     0.12900
H3369       H  0.77634407  0.43129963  0.95178900     0.12900
C3370       C  0.78573714  0.37257212  0.96504352     0.62400
F3371       F  0.78152053  0.41190132  0.79775887    -0.22800
F3372       F  0.80620669  0.45254602  0.81901269    -0.20100
F3373       F  0.75705720  0.44816134  0.82489054    -0.19800
F3374       F  0.81044761  0.38140911  0.98495456    -0.19800
F3375       F  0.78548772  0.34173409  0.96048659    -0.20100
F3376       F  0.76099093  0.38003992  0.98394225    -0.22800
C3377       C  0.59138099  0.44542266  0.60070761    -0.05700
C3378       C  0.57614313  0.44985570  0.63328452     0.00300
C3379       C  0.58548410  0.43381735  0.66433173    -0.08300
C3380       C  0.60765278  0.41281948  0.66049648    -0.05700
C3381       C  0.61994016  0.40509127  0.62686111     0.00300
C3382       C  0.61380565  0.42414484  0.59718994    -0.08200
C3383       C  0.63149843  0.42442343  0.56286313     0.62200
H3384       H  0.58546493  0.45867822  0.57744150     0.12900
H3385       H  0.61409968  0.40008284  0.68391125     0.12900
C3386       C  0.57127308  0.43683784  0.70121528     0.62400
F3387       F  0.63174192  0.45257997  0.54739364    -0.22800
F3388       F  0.61915509  0.40418725  0.53805221    -0.20100
F3389       F  0.66042993  0.41776409  0.57019384    -0.19800
F3390       F  0.54169910  0.42913286  0.69831660    -0.19800
F3391       F  0.57493114  0.46593138  0.71407930    -0.20100
F3392       F  0.58350578  0.41823654  0.72682854    -0.22800
C3393       C  0.55378318  0.09544868  0.66006797    -0.05700
C3394       C  0.54527942  0.08173736  0.62669386     0.00300
C3395       C  0.55279975  0.09700606  0.59430141    -0.08300
C3396       C  0.57230289  0.12208229  0.59677126    -0.05700
C3397       C  0.58583159  0.13123642  0.62989716     0.00300
C3398       C  0.57244142  0.12116114  0.66194618    -0.08200
C3399       C  0.57392780  0.13885101  0.69702010     0.62200
H3400       H  0.54545706  0.08640199  0.68513957     0.12900
H3401       H  0.58063145  0.13186102  0.57214822     0.12900
C3402       C  0.54183905  0.08655885  0.55704872     0.62400
F3403       F  0.54587345  0.14201697  0.71003412    -0.22800
F3404       F  0.58568180  0.16736067  0.69183622    -0.20100
F3405       F  0.59033860  0.12397226  0.72260031    -0.19800
F3406       F  0.51147703  0.08491353  0.55632395    -0.19800
F3407       F  0.55286923  0.05878414  0.54892097    -0.20100
F3408       F  0.55061853  0.10604815  0.53008557    -0.22800
C3409       C  0.90826994  0.05580803  0.60194788    -0.05700
C3410       C  0.92287606  0.04951876  0.63490605     0.00300
C3411       C  0.91069634  0.06091360  0.66740990    -0.08300
C3412       C  0.88725722  0.08079706  0.66485960    -0.05700
C3413       C  0.87569254  0.09067595  0.63149812     0.00300
C3414       C  0.88377890  0.07457578  0.59997746    -0.08200
C3415       C  0.86560773  0.07332333  0.56531376     0.62200
H3416       H  0.91561245  0.04537212  0.57722334     0.12900
H3417       H  0.87936623  0.09114647  0.68927632     0.12900
C3418       C  0.92254591  0.05346000  0.70491388     0.62400
F3419       F  0.86430526  0.04429348  0.55167800    -0.22800
F3420       F  0.87840282  0.09170362  0.53971119    -0.20100
F3421       F  0.83700074  0.08135941  0.57124625    -0.19800
F3422       F  0.95098757  0.06474626  0.70924319    -0.19800
F3423       F  0.92179495  0.02271599  0.70958302    -0.20100
F3424       F  0.90610868  0.06582477  0.73210622    -0.22800
C3425       C  0.92931021  0.42354193  0.66666500    -0.05700
C3426       C  0.94993096  0.42263542  0.63909315     0.00300
C3427       C  0.95278086  0.39571449  0.61932128    -0.08300
C3428       C  0.93207209  0.37204421  0.62456067    -0.05700
C3429       C  0.90784022  0.37471606  0.64793643     0.00300
C3430       C  0.90850948  0.40013996  0.67220208    -0.08200
C3431       C  0.88752754  0.40375492  0.70365630     0.62200
H3432       H  0.92887795  0.44371992  0.68312398     0.12900
H3433       H  0.93382435  0.35254183  0.60761838     0.12900
C3434       C  0.97728520  0.39210856  0.59240328     0.62400
F3435       F  0.89177223  0.38112969  0.72832510    -0.22800
F3436       F  0.85863800  0.40343417  0.69180136    -0.20100
F3437       F  0.89246867  0.43063944  0.72209472    -0.19800
F3438       F  0.00393976  0.40066996  0.60837313    -0.19800
F3439       F  0.97221955  0.40974165  0.56251894    -0.20100
F3440       F  0.97924587  0.36268948  0.58064236    -0.22800
C3441       C  0.57861836  0.11466669  0.83114208    -0.05700
C3442       C  0.57953883  0.13629591  0.85938253     0.00300
C3443       C  0.55819042  0.13160261  0.88722298    -0.08300
C3444       C  0.54303380  0.10355317  0.89007375    -0.05700
C3445       C  0.54540630  0.08058502  0.86437388     0.00300
C3446       C  0.56237449  0.08701938  0.83303727    -0.08200
C3447       C  0.56517040  0.06424384  0.80244338     0.62200
H3448       H  0.59294083  0.11828622  0.80859763     0.12900
H3449       H  0.52852694  0.09957414  0.91256893     0.12900
C3450       C  0.54826794  0.15669458  0.91164679     0.62400
F3451       F  0.58513075  0.07371303  0.77680313    -0.22800
F3452       F  0.53833880  0.05971773  0.78494840    -0.20100
F3453       F  0.57465880  0.03737786  0.81613603    -0.19800
F3454       F  0.54475234  0.18224161  0.89139172    -0.19800
F3455       F  0.56815237  0.16183797  0.93973420    -0.20100
F3456       F  0.52132331  0.14990950  0.92687727    -0.22800
C3457       C  0.59891482  0.45556484  0.86259569    -0.05700
C3458       C  0.57502698  0.44957319  0.88502193     0.00300
C3459       C  0.57826416  0.42662129  0.91142103    -0.08300
C3460       C  0.60378146  0.40930712  0.91162128    -0.05700
C3461       C  0.62710940  0.41348920  0.88732090     0.00300
C3462       C  0.62539955  0.43949212  0.86446263    -0.08200
C3463       C  0.65123797  0.45299233  0.84418098     0.62200
H3464       H  0.59687625  0.47388219  0.84377475     0.12900
H3465       H  0.60434355  0.39040989  0.92976510     0.12900
C3466       C  0.55556263  0.41745216  0.93926243     0.62400
F3467       F  0.64627698  0.48215564  0.83361709    -0.22800
F3468       F  0.65607466  0.43659734  0.81308298    -0.20100
F3469       F  0.67588180  0.45443413  0.86656633    -0.19800
F3470       F  0.54927773  0.38699934  0.93596587    -0.19800
F3471       F  0.52948391  0.43185951  0.93598821    -0.20100
F3472       F  0.56706448  0.42325470  0.97358004    -0.22800
C3473       C  0.92653424  0.37255522  0.88528814    -0.05700
C3474       C  0.89905409  0.37831309  0.86863598     0.00300
C3475       C  0.89622062  0.40734505  0.85252077    -0.08300
C3476       C  0.91863094  0.42938294  0.85825178    -0.05700
C3477       C  0.94401734  0.42439987  0.87879511     0.00300
C3478       C  0.94842900  0.39521392  0.89172653    -0.08200
C3479       C  0.97624051  0.38803592  0.91206628     0.62200
H3480       H  0.93120310  0.35028448  0.89396903     0.12900
H3481       H  0.91602837  0.45143703  0.84664362     0.12900
C3482       C  0.87047306  0.41819677  0.82992846     0.62400
F3483       F  0.97815790  0.40534134  0.94328982    -0.22800
F3484       F  0.00002107  0.39418217  0.89032602    -0.20100
F3485       F  0.97694982  0.35821209  0.92194543    -0.19800
F3486       F  0.85857804  0.44239497  0.84746662    -0.19800
F3487       F  0.84837245  0.39725984  0.82327258    -0.20100
F3488       F  0.88066009  0.42761708  0.79673340    -0.22800
C3489       C  0.90121115  0.04824094  0.85075264    -0.05700
C3490       C  0.91660368  0.04305866  0.88307645     0.00300
C3491       C  0.90243220  0.05085673  0.91606997    -0.08300
C3492       C  0.87712867  0.06874728  0.91472675    -0.05700
C3493       C  0.86453275  0.07840489  0.88188411     0.00300
C3494       C  0.87487113  0.06424455  0.84944845    -0.08200
C3495       C  0.85926268  0.06630139  0.81281643     0.62200
H3496       H  0.91049821  0.04018510  0.82585600     0.12900
H3497       H  0.86861495  0.07717999  0.93975270     0.12900
C3498       C  0.91369886  0.04096252  0.95289992     0.62400
F3499       F  0.87191613  0.04848504  0.78687414    -0.22800
F3500       F  0.86018525  0.09534758  0.80021870    -0.20100
F3501       F  0.83055162  0.05604456  0.81565425    -0.19800
F3502       F  0.94032494  0.05528443  0.96109144    -0.19800
F3503       F  0.91687166  0.01021181  0.95275028    -0.20100
F3504       F  0.89450975  0.04770851  0.98028061    -0.22800
O3505       O  0.52020883  0.53463431  0.34375792    -0.72800
O3506       O  0.97396436  0.95841635  0.34883307    -0.73800
O3507       O  0.95659260  0.51854932  0.34851244    -0.62400
O3508       O  0.53374652  0.97284863  0.35269164    -0.70800
O3509       O  0.53491565  0.97917924  0.41204522    -0.70400
O3510       O  0.96090055  0.52381845  0.40762909    -0.61600
O3511       O  0.97333002  0.96080560  0.40870815    -0.74100
O3512       O  0.52325706  0.54080424  0.40294575    -0.72900
Cu3513     Cu  0.99622009  0.99697365  0.34515045     1.04600
Cu3514     Cu  0.49955597  0.50067875  0.41142906     1.04300
C3515       C  0.52915005  0.55028712  0.37087405     0.93400
C3516       C  0.96535698  0.94776585  0.37873056     0.92500
C3517       C  0.94586564  0.52733720  0.37880211     0.84700
C3518       C  0.54575636  0.96760870  0.38374510     0.90900
O3519       O  0.53854122  0.98053272  0.16103983    -0.72800
O3520       O  0.96366734  0.52455420  0.16210782    -0.73800
O3521       O  0.97634861  0.96343823  0.16658670    -0.62400
O3522       O  0.52320972  0.53904192  0.15738997    -0.70800
O3523       O  0.52034576  0.53559397  0.09789947    -0.70400
O3524       O  0.97196436  0.95845626  0.10701804    -0.61600
O3525       O  0.95892199  0.52078867  0.10283071    -0.74100
O3526       O  0.53507792  0.97741081  0.10160883    -0.72900
Cu3527     Cu  0.00000955  0.00182476  0.16274852     1.04600
Cu3528     Cu  0.49685394  0.99995600  0.10148034     1.04300
C3529       C  0.54860248  0.97105093  0.13107525     0.93400
C3530       C  0.94915808  0.53006538  0.13310426     0.92500
C3531       C  0.96683803  0.94867269  0.13883792     0.84700
C3532       C  0.52879944  0.55008260  0.12647072     0.90900
N3533       N  0.66859129  0.80406079  0.00226119    -0.36500
N3534       N  0.66262970  0.75463015  0.05644308    -0.57000
N3535       N  0.65417192  0.71181717  0.99851964    -0.36500
N3536       N  0.65838534  0.76102333  0.44431523    -0.57000
C3537       C  0.67387627  0.81962912  0.03352294     0.27100
C3538       C  0.67725913  0.82244746  0.47401696     0.27100
C3539       C  0.64750496  0.69428469  0.02735976     0.27100
C3540       C  0.64558748  0.69738449  0.46994951     0.27100
C3541       C  0.67360964  0.77764078  0.07716477     0.35700
C3542       C  0.66814007  0.72882680  0.07428974     0.35700
C3543       C  0.67250656  0.78339366  0.42612300     0.35700
C3544       C  0.66131176  0.73537077  0.42473900     0.35700
C3545       C  0.68496050  0.84795318  0.02511940    -0.21800
C3546       C  0.68899017  0.84958370  0.48699329    -0.21800
C3547       C  0.63260312  0.66852765  0.01504735    -0.21800
C3548       C  0.63343569  0.66994149  0.48014280    -0.21800
C3549       C  0.68760194  0.76585827  0.10733763    -0.22800
C3550       C  0.68332202  0.73523183  0.10607856    -0.22800
C3551       C  0.68604745  0.77066956  0.39647942    -0.22800
C3552       C  0.67752594  0.74108271  0.39442111    -0.22800
C3553       C  0.66973440  0.80872533  0.06947110    -0.18200
C3554       C  0.67329705  0.81465250  0.43658615    -0.18200
C3555       C  0.64948428  0.70675948  0.43355636    -0.18200
C3556       C  0.65656744  0.70017589  0.06392584    -0.18200
H3557       H  0.69290692  0.86518524  0.04395578     0.14700
H3558       H  0.69731715  0.86824618  0.47131521     0.14700
H3559       H  0.62526140  0.64952046  0.03079146     0.14700
H3560       H  0.62467656  0.65222868  0.46260331     0.14700
H3561       H  0.70087247  0.77736985  0.12770306     0.13000
H3562       H  0.69095021  0.71949915  0.12598276     0.13000
H3563       H  0.70262487  0.78002914  0.37938083     0.13000
H3564       H  0.68432942  0.72525556  0.37416473     0.13000
H3565       H  0.65892501  0.78278082  0.00083323     0.26300
H3566       H  0.66816872  0.73066753  0.99869036     0.26300
C3567       C  0.87125616  0.85486829  0.37362156     0.86600
C3568       C  0.87539013  0.82785390  0.39858114    -0.53600
C3569       C  0.85009735  0.81219322  0.40593057     0.09500
C3570       C  0.82287544  0.82452714  0.38697190     0.20500
C3571       C  0.85551289  0.84075906  0.33938207    -0.54400
C3572       C  0.82902439  0.82562825  0.34544419     0.09600
C3573       C  0.84784693  0.87242794  0.39330919    -0.53900
C3574       C  0.82237444  0.85693576  0.39920770     0.10200
H3575       H  0.89530464  0.82314575  0.41324868     0.14700
H3576       H  0.80365713  0.81273798  0.39738435     0.00500
H3577       H  0.86323708  0.84575698  0.31243156     0.15000
H3578       H  0.84995223  0.89640045  0.39873859     0.14800
C3579       C  0.87638757  0.85720067  0.13737708     0.86600
C3580       C  0.85548458  0.84481155  0.16601273    -0.53600
C3581       C  0.82781326  0.83531776  0.15400659     0.09500
C3582       C  0.82500096  0.83842671  0.11139096     0.20500
C3583       C  0.87748983  0.83117595  0.10906433    -0.54400
C3584       C  0.85068356  0.82051243  0.09630857     0.09600
C3585       C  0.85906593  0.88081888  0.11842325    -0.53900
C3586       C  0.83332842  0.87154513  0.10287946     0.10200
H3587       H  0.86206745  0.84512531  0.19394999     0.14700
H3588       H  0.80437000  0.83186369  0.09768822     0.00500
H3589       H  0.89732051  0.82138318  0.09956633     0.15000
H3590       H  0.86825399  0.90330820  0.11412221     0.14800
C3591       C  0.61868130  0.64072291  0.12449177     0.86600
C3592       C  0.63814545  0.64713208  0.15886906    -0.53600
C3593       C  0.66693127  0.65573283  0.15244647     0.09500
C3594       C  0.67321957  0.65636717  0.11086128     0.20500
C3595       C  0.62203849  0.66892940  0.10122990    -0.54400
C3596       C  0.65025901  0.67693608  0.09279305     0.09600
C3597       C  0.63581493  0.61681112  0.10450411    -0.53900
C3598       C  0.66409479  0.62410979  0.09805737     0.10200
H3599       H  0.63118904  0.64205933  0.18589218     0.14700
H3600       H  0.69603352  0.66318921  0.10405019     0.00500
H3601       H  0.60330602  0.68025969  0.08983864     0.15000
H3602       H  0.62618615  0.59525638  0.09624259     0.14800
C3603       C  0.61135541  0.65073343  0.36692152     0.86600
C3604       C  0.61437987  0.67808500  0.39227877    -0.53600
C3605       C  0.64241762  0.68478938  0.40327646     0.09500
C3606       C  0.66549257  0.66529961  0.38491664     0.20500
C3607       C  0.63200356  0.66034790  0.33428801    -0.54400
C3608       C  0.66152413  0.66809050  0.34340413     0.09600
C3609       C  0.62836321  0.62632531  0.38613730    -0.53900
C3610       C  0.65705876  0.63248674  0.39125946     0.10200
H3611       H  0.59662662  0.69171527  0.40090877     0.14700
H3612       H  0.68621711  0.67049433  0.39819856     0.00500
H3613       H  0.62429582  0.65786713  0.30658352     0.15000
H3614       H  0.61899676  0.60430553  0.39181458     0.14800
N3615       N  0.81988596  0.96200491  0.95951747    -0.36500
N3616       N  0.75584570  0.49279351  0.39814935    -0.57000
N3617       N  0.73646505  0.52405613  0.96612937    -0.36500
N3618       N  0.78164329  0.51163203  0.01643931    -0.57000
C3619       C  0.81659189  0.97893199  0.42965882     0.27100
C3620       C  0.82484423  0.98264971  0.98594815     0.27100
C3621       C  0.71801256  0.53143811  0.43600060     0.27100
C3622       C  0.72399387  0.53366737  0.99700397     0.27100
C3623       C  0.77880193  0.98546966  0.38559239     0.35700
C3624       C  0.74916578  0.51948469  0.38501296     0.35700
C3625       C  0.80072535  0.99872217  0.03952823     0.35700
C3626       C  0.76536986  0.52643148  0.04014703     0.35700
C3627       C  0.82178293  0.00969143  0.43456658    -0.21800
C3628       C  0.82819168  0.01085646  0.97091912    -0.21800
C3629       C  0.69185233  0.54210661  0.44883183    -0.21800
C3630       C  0.69527300  0.54149494  0.98966720    -0.21800
C3631       C  0.78606643  0.00667571  0.35996322    -0.22800
C3632       C  0.76765448  0.52796584  0.35727852    -0.22800
C3633       C  0.79778235  0.00479534  0.07609492    -0.22800
C3634       C  0.77696139  0.52330076  0.07482220    -0.22800
C3635       C  0.79796666  0.96632343  0.40166272    -0.18200
C3636       C  0.81822295  0.97747433  0.02263834    -0.18200
C3637       C  0.73888701  0.53994298  0.03033439    -0.18200
C3638       C  0.72831439  0.53683321  0.40093172    -0.18200
H3639       H  0.81752801  0.02743593  0.41565146     0.14700
H3640       H  0.83110880  0.03204140  0.98525180     0.14700
H3641       H  0.67361820  0.55021510  0.43298044     0.14700
H3642       H  0.67983342  0.55087414  0.00828897     0.14700
H3643       H  0.80579526  0.00792022  0.34414030     0.13000
H3644       H  0.76812022  0.54890489  0.34274202     0.13000
H3645       H  0.81042885  0.99573910  0.09825202     0.12200
H3646       H  0.76821701  0.53187624  0.09978965     0.13000
H3647       H  0.81704207  0.93916545  0.96412573     0.26300
H3648       H  0.75862203  0.52066583  0.96180029     0.26300
N3649       N  0.83669894  0.69160703  0.00413417    -0.36500
N3650       N  0.84025713  0.73598594  0.44741927    -0.57000
N3651       N  0.84669956  0.78425005  0.00314638    -0.36500
N3652       N  0.84249998  0.74045632  0.06071898    -0.57000
C3653       C  0.82883605  0.67385879  0.47525588     0.27100
C3654       C  0.82996791  0.67586134  0.03434385     0.27100
C3655       C  0.85530980  0.79910422  0.47177538     0.27100
C3656       C  0.85590362  0.80073596  0.03248114     0.27100
C3657       C  0.82821449  0.71235264  0.42852804     0.35700
C3658       C  0.83593996  0.76076575  0.42733060     0.35700
C3659       C  0.82920570  0.71774087  0.07896454     0.35700
C3660       C  0.83648989  0.76640110  0.07845713     0.35700
C3661       C  0.81617079  0.64741759  0.48771785    -0.21800
C3662       C  0.81828274  0.64806362  0.02381774    -0.21800
C3663       C  0.86909207  0.82624839  0.48183554    -0.21800
C3664       C  0.87118622  0.82598177  0.02115809    -0.21800
C3665       C  0.81424495  0.72283750  0.39784933    -0.22800
C3666       C  0.82060582  0.75286211  0.39592706    -0.22800
C3667       C  0.81312142  0.72976815  0.10687803    -0.22800
C3668       C  0.81888054  0.76026292  0.10765087    -0.22800
C3669       C  0.83132727  0.68161339  0.43792507    -0.18200
C3670       C  0.83205199  0.68648678  0.07105098    -0.18200
C3671       C  0.84753572  0.79523219  0.06859550    -0.18200
C3672       C  0.84775736  0.78979990  0.43573798    -0.18200
H3673       H  0.80618411  0.62924703  0.47195737     0.14700
H3674       H  0.80871622  0.63109386  0.04108783     0.14700
H3675       H  0.87729134  0.84406314  0.46490483     0.14700
H3676       H  0.88167112  0.84323769  0.03780213     0.14700
H3677       H  0.80099487  0.71050993  0.37811690     0.13000
H3678       H  0.81445125  0.76678170  0.37355762     0.13000
H3679       H  0.79766404  0.71806339  0.12403478     0.13000
H3680       H  0.81010743  0.77607772  0.12661096     0.13000
H3681       H  0.84703374  0.71265026  0.00404102     0.26300
H3682       H  0.83198728  0.76594341  0.00342122     0.26300
N3683       N  0.79738417  0.82834111  0.24884605    -0.36500
N3684       N  0.75573727  0.83983368  0.30641119    -0.57000
N3685       N  0.71060193  0.85119720  0.25216652    -0.36500
N3686       N  0.75182950  0.83963826  0.19394061    -0.57000
C3687       C  0.81339440  0.81920949  0.27803123     0.27100
C3688       C  0.81191701  0.82086742  0.21836306     0.27100
C3689       C  0.69728811  0.86169057  0.28226997     0.27100
C3690       C  0.69359430  0.85774800  0.22297993     0.27100
C3691       C  0.77511414  0.82230998  0.32373754     0.35700
C3692       C  0.73204866  0.84153514  0.32785584     0.35700
C3693       C  0.77316206  0.82963704  0.17191657     0.35700
C3694       C  0.72629540  0.83893943  0.17437809     0.35700
C3695       C  0.83789261  0.80496358  0.26598607    -0.21800
C3696       C  0.83668360  0.80537727  0.22863585    -0.21800
C3697       C  0.67140098  0.87492724  0.27180513    -0.21800
C3698       C  0.66890398  0.87213093  0.23483599    -0.21800
C3699       C  0.76237776  0.81118334  0.35461991    -0.22800
C3700       C  0.73693852  0.82591268  0.35924962    -0.22800
C3701       C  0.76048791  0.82098376  0.13905490    -0.22800
C3702       C  0.73156254  0.82836955  0.13995291    -0.22800
C3703       C  0.80537063  0.82115567  0.31518172    -0.18200
C3704       C  0.80355061  0.82773224  0.18162276    -0.18200
C3705       C  0.69862213  0.84893134  0.18643104    -0.18200
C3706       C  0.70566010  0.85583455  0.31887569    -0.18200
H3707       H  0.85407849  0.79407730  0.28252815     0.14700
H3708       H  0.85218180  0.79498520  0.21103901     0.14700
H3709       H  0.65462984  0.88370509  0.28886441     0.14700
H3710       H  0.65014982  0.87890739  0.21910567     0.14700
H3711       H  0.76926223  0.79279100  0.37105103     0.13000
H3712       H  0.72349133  0.82435168  0.38282613     0.13000
H3713       H  0.76963024  0.80795125  0.11763110     0.13000
H3714       H  0.71626765  0.82566142  0.11761342     0.13000
H3715       H  0.77926866  0.84182353  0.24972383     0.26300
H3716       H  0.72812783  0.83689954  0.25169380     0.26300
C3717       C  0.64443270  0.88460235  0.38119433     0.86600
C3718       C  0.65603982  0.86718964  0.41526285    -0.53600
C3719       C  0.66860699  0.83954119  0.40812310     0.09500
C3720       C  0.66848565  0.83336584  0.36686516     0.20500
C3721       C  0.67169609  0.88680639  0.35668955    -0.54400
C3722       C  0.68348828  0.85999941  0.34821156     0.09600
C3723       C  0.62408213  0.86082958  0.36241568    -0.53900
C3724       C  0.63662545  0.83418572  0.35584095     0.10200
H3725       H  0.65142165  0.87479009  0.44244106     0.14700
H3726       H  0.67749504  0.81268125  0.35731164     0.00500
H3727       H  0.68157536  0.90670219  0.34576922     0.15000
H3728       H  0.60061228  0.86358545  0.35866222     0.14800
C3729       C  0.63434433  0.87475008  0.12447787     0.86600
C3730       C  0.66136248  0.87743359  0.15016352    -0.53600
C3731       C  0.67362458  0.85092000  0.15926943     0.09500
C3732       C  0.65843674  0.82352139  0.14022131     0.20500
C3733       C  0.64606778  0.85724417  0.09126951    -0.54400
C3734       C  0.65967935  0.83047721  0.09901757     0.09600
C3735       C  0.61368863  0.85126947  0.14147268    -0.53900
C3736       C  0.62579011  0.82476997  0.14954405     0.10200
H3737       H  0.66959231  0.89876971  0.16121242     0.14700
H3738       H  0.66721818  0.80245006  0.14989336     0.00500
H3739       H  0.64202063  0.86349249  0.06386080     0.15000
H3740       H  0.59085875  0.85550498  0.14730531     0.14800
C3741       C  0.85834209  0.61890343  0.13049682     0.86600
C3742       C  0.83160240  0.61949685  0.15581084    -0.53600
C3743       C  0.82118236  0.64741824  0.16248184     0.09500
C3744       C  0.83825553  0.67240211  0.14293183     0.20500
C3745       C  0.84842550  0.63572889  0.09602861    -0.54400
C3746       C  0.83718611  0.66405446  0.10180134     0.09600
C3747       C  0.88084507  0.64154225  0.14658682    -0.53900
C3748       C  0.87034349  0.66870233  0.15440251     0.10200
H3749       H  0.82243502  0.59954230  0.16848574     0.14700
H3750       H  0.83105860  0.69453791  0.15143222     0.00500
H3751       H  0.85425874  0.62816589  0.06955915     0.15000
H3752       H  0.90371466  0.63640578  0.15171376     0.14800
C3753       C  0.85187068  0.60970845  0.37842447     0.86600
C3754       C  0.84306343  0.62766056  0.41334321    -0.53600
C3755       C  0.83672128  0.65786744  0.40791995     0.09500
C3756       C  0.84118143  0.66613001  0.36731949     0.20500
C3757       C  0.82612513  0.61511625  0.35187875    -0.54400
C3758       C  0.81985055  0.64437696  0.34610702     0.09600
C3759       C  0.87778105  0.62831345  0.36554337    -0.53900
C3760       C  0.87318557  0.65727563  0.35941396     0.10200
H3761       H  0.84405986  0.61777135  0.43976870     0.14700
H3762       H  0.83885363  0.68931942  0.35865497     0.00500
H3763       H  0.81299316  0.59737144  0.33915474     0.15000
H3764       H  0.89964648  0.61974755  0.36758079     0.14800
N3765       N  0.53111736  0.73238002  0.28172613    -0.36500
N3766       N  0.49911257  0.74085032  0.35217796    -0.57000
N3767       N  0.95430297  0.77630428  0.27957033    -0.36500
N3768       N  0.49040321  0.75189516  0.22732681    -0.57000
C3769       C  0.54801296  0.72257803  0.30932563     0.27100
C3770       C  0.54584079  0.72801116  0.25089597     0.27100
C3771       C  0.93919174  0.76984932  0.30980907     0.27100
C3772       C  0.93543679  0.77144482  0.25137669     0.27100
C3773       C  0.52572685  0.75476335  0.35272473     0.35700
C3774       C  0.98187651  0.76220677  0.34867060     0.35700
C3775       C  0.51520088  0.75636947  0.20878839     0.35700
C3776       C  0.97329450  0.76278515  0.20666310     0.35700
C3777       C  0.57029629  0.70572990  0.29510160    -0.21800
C3778       C  0.56975658  0.71046415  0.25808333    -0.21800
C3779       C  0.90960495  0.76585835  0.30110482    -0.21800
C3780       C  0.90722335  0.76702593  0.26408473    -0.21800
C3781       C  0.52280189  0.78572641  0.35318558    -0.22800
C3782       C  0.99526900  0.79035771  0.34911073    -0.22800
C3783       C  0.50967827  0.77251235  0.17759065    -0.22800
C3784       C  0.98408681  0.77015589  0.17309850    -0.22800
C3785       C  0.55117853  0.74045658  0.34125913    -0.18200
C3786       C  0.54278631  0.74700600  0.22079604    -0.18200
C3787       C  0.94393865  0.76323543  0.21609723    -0.18200
C3788       C  0.95256837  0.75599111  0.33958137    -0.18200
H3789       H  0.58887216  0.69758297  0.31013207     0.14700
H3790       H  0.58727501  0.70552946  0.23976238     0.14700
H3791       H  0.89233362  0.75829246  0.31891550     0.14700
H3792       H  0.88775835  0.76083485  0.24825528     0.14700
H3793       H  0.54002627  0.80275627  0.35062924     0.13000
H3794       H  0.98489777  0.81160452  0.34503618     0.13000
H3795       H  0.52514932  0.77922789  0.15707349     0.13000
H3796       H  0.97244140  0.77983861  0.15056347     0.13000
H3797       H  0.51517305  0.74841909  0.28472535     0.26300
H3798       H  0.97709343  0.77822263  0.27818223     0.26300
N3799       N  0.69683984  0.66144896  0.25003514    -0.36500
N3800       N  0.74140064  0.65753400  0.30802967    -0.57000
N3801       N  0.78742437  0.65328382  0.25367509    -0.36500
N3802       N  0.74403154  0.66012431  0.19526109    -0.57000
C3803       C  0.68136206  0.67266722  0.27817442     0.27100
C3804       C  0.68274907  0.66855467  0.21851808     0.27100
C3805       C  0.80423440  0.65823998  0.28368995     0.27100
C3806       C  0.80431745  0.66048338  0.22504319     0.27100
C3807       C  0.71851745  0.66703677  0.32837456     0.35700
C3808       C  0.76581672  0.65618703  0.33017624     0.35700
C3809       C  0.71991252  0.65033369  0.17613400     0.35700
C3810       C  0.76754245  0.64900173  0.17780831     0.35700
C3811       C  0.65789297  0.68815367  0.26398646    -0.21800
C3812       C  0.65860867  0.68536266  0.22671376    -0.21800
C3813       C  0.83166818  0.66932609  0.27418876    -0.21800
C3814       C  0.83133584  0.67141187  0.23717903    -0.21800
C3815       C  0.73036484  0.67503331  0.36215183    -0.22800
C3816       C  0.75879028  0.66575894  0.36420202    -0.22800
C3817       C  0.72874312  0.63238134  0.14807542    -0.22800
C3818       C  0.75862064  0.63239485  0.14797250    -0.22800
C3819       C  0.68789023  0.66966275  0.31622541    -0.18200
C3820       C  0.69043063  0.65853850  0.18295040    -0.18200
C3821       C  0.79704477  0.65336662  0.18876506    -0.18200
C3822       C  0.79566595  0.65277276  0.31939762    -0.18200
H3823       H  0.64225112  0.70102226  0.27886419     0.14700
H3824       H  0.64330638  0.69509691  0.20780919     0.14700
H3825       H  0.84968757  0.67620906  0.29202483     0.14700
H3826       H  0.84872439  0.68051487  0.22107992     0.14700
H3827       H  0.72237149  0.69103896  0.38121562     0.13000
H3828       H  0.77371925  0.66969749  0.38682237     0.13000
H3829       H  0.71533274  0.61870301  0.13113106     0.13000
H3830       H  0.77201838  0.61995016  0.12953453     0.13000
H3831       H  0.71427097  0.64697029  0.25203657     0.26300
H3832       H  0.76709465  0.64197752  0.25265125     0.26300
C3833       C  0.89828378  0.70366047  0.38222817    -0.05700
C3834       C  0.89872157  0.67903608  0.35833791     0.00300
C3835       C  0.92367876  0.67601336  0.33563956    -0.08300
C3836       C  0.94186323  0.70160403  0.33056684    -0.05700
C3837       C  0.93867559  0.72751752  0.35155213     0.00300
C3838       C  0.91905699  0.72723514  0.38032050    -0.08200
C3839       C  0.91958917  0.75271125  0.40734990     0.62200
H3840       H  0.88160400  0.70444942  0.40246893     0.12900
H3841       H  0.95886804  0.70167765  0.31041629     0.12900
C3842       C  0.93372536  0.64633309  0.31986023     0.62400
F3843       F  0.91157206  0.77826796  0.38975309    -0.22800
F3844       F  0.94764941  0.75695797  0.42164875    -0.20100
F3845       F  0.90076966  0.74734485  0.43564320    -0.19800
F3846       F  0.91081000  0.62964842  0.30416337    -0.19800
F3847       F  0.94655029  0.62991881  0.34711439    -0.20100
F3848       F  0.95474837  0.65083111  0.29368066    -0.22800
C3849       C  0.88928808  0.72068691  0.15455485    -0.05700
C3850       C  0.88905686  0.69260786  0.17097777     0.00300
C3851       C  0.90733381  0.68794238  0.20163526    -0.08300
C3852       C  0.92632392  0.71125224  0.21331087    -0.05700
C3853       C  0.92568528  0.73970127  0.19778147     0.00300
C3854       C  0.90706448  0.74455403  0.16787576    -0.08200
C3855       C  0.90410019  0.77408689  0.14946998     0.62200
H3856       H  0.87541571  0.72411102  0.13098889     0.12900
H3857       H  0.94058687  0.70785013  0.23665762     0.12900
C3858       C  0.90620416  0.66070976  0.22576364     0.62400
F3859       F  0.87533038  0.78215928  0.15275008    -0.22800
F3860       F  0.91058880  0.77047093  0.11325913    -0.20100
F3861       F  0.92200688  0.79682014  0.16398393    -0.19800
F3862       F  0.93271045  0.64649174  0.22448166    -0.19800
F3863       F  0.88400898  0.64002036  0.21766501    -0.20100
F3864       F  0.90149991  0.67084729  0.26045502    -0.22800
C3865       C  0.58066667  0.75426791  0.17453497    -0.05700
C3866       C  0.56874230  0.76394055  0.20703897     0.00300
C3867       C  0.57670678  0.79301734  0.22086384    -0.08300
C3868       C  0.59844690  0.80992981  0.20314195    -0.05700
C3869       C  0.60858879  0.80138984  0.16912516     0.00300
C3870       C  0.59782727  0.77387116  0.15347140    -0.08200
C3871       C  0.59982674  0.76538341  0.11394843     0.62200
H3872       H  0.57286274  0.73297070  0.16301984     0.12900
H3873       H  0.60524628  0.83184311  0.21368528     0.12900
C3874       C  0.55929956  0.80866839  0.24995830     0.62400
F3875       F  0.57187234  0.75947216  0.09995770    -0.22800
F3876       F  0.61568804  0.73971524  0.11097472    -0.20100
F3877       F  0.61235219  0.78762859  0.09329365    -0.19800
F3878       F  0.55421033  0.79022577  0.27882350    -0.19800
F3879       F  0.53265710  0.81700961  0.23548997    -0.20100
F3880       F  0.57384981  0.83427486  0.26314847    -0.22800
C3881       C  0.60410779  0.79676555  0.38430304    -0.05700
C3882       C  0.61929127  0.80611557  0.35353462     0.00300
C3883       C  0.61897774  0.78798870  0.32234139    -0.08300
C3884       C  0.59878826  0.76400386  0.32052221    -0.05700
C3885       C  0.58012794  0.75647028  0.34954556     0.00300
C3886       C  0.58553260  0.77122550  0.38339843    -0.08200
C3887       C  0.57070727  0.76256603  0.41840403     0.62200
H3888       H  0.60652386  0.80979551  0.40916987     0.12900
H3889       H  0.59566072  0.75394629  0.29439215     0.12900
C3890       C  0.63811411  0.79514725  0.29000784     0.62400
F3891       F  0.59166880  0.76025087  0.44563397    -0.22800
F3892       F  0.55559474  0.73540912  0.41572112    -0.20100
F3893       F  0.55137439  0.78444533  0.42812392    -0.19800
F3894       F  0.66739495  0.79319058  0.29946064    -0.19800
F3895       F  0.63276431  0.82373352  0.27829610    -0.20100
F3896       F  0.63273869  0.77547259  0.26131406    -0.22800
C3897       C  0.70569853  0.61298556  0.40368953    -0.05700
C3898       C  0.67875176  0.60893819  0.38516026     0.00300
C3899       C  0.67520521  0.58441780  0.35953013    -0.08300
C3900       C  0.69542161  0.56171628  0.36113894    -0.05700
C3901       C  0.71961182  0.56435138  0.38394281     0.00300
C3902       C  0.72724514  0.59172075  0.40095983    -0.08200
C3903       C  0.75820863  0.59804089  0.41484067     0.62200
H3904       H  0.70984132  0.63252425  0.42075071     0.12900
H3905       H  0.69103608  0.54043321  0.34737571     0.12900
C3906       C  0.65133857  0.58056126  0.33044723     0.62400
F3907       F  0.77672602  0.59563014  0.38617793    -0.22800
F3908       F  0.76641655  0.57770022  0.44063390    -0.20100
F3909       F  0.76164297  0.62661717  0.42938274    -0.19800
F3910       F  0.65811830  0.55881155  0.30513813    -0.19800
F3911       F  0.64844501  0.60662554  0.31147853    -0.20100
F3912       F  0.62515350  0.57155738  0.34549436    -0.22800
C3913       C  0.70321739  0.61151213  0.05635050    -0.05700
C3914       C  0.68414235  0.60162249  0.08301949     0.00300
C3915       C  0.68765736  0.57241680  0.09801306    -0.08300
C3916       C  0.70772085  0.55313636  0.08199989    -0.05700
C3917       C  0.72582854  0.56285953  0.05408916     0.00300
C3918       C  0.72494763  0.59316971  0.04298605    -0.08200
C3919       C  0.74471507  0.60655378  0.01479511     0.62200
H3920       H  0.70135512  0.63409467  0.04609416     0.12900
H3921       H  0.70853719  0.52992160  0.09021744     0.12900
C3922       C  0.67152608  0.56124654  0.13122751     0.62400
F3923       F  0.75401651  0.63510556  0.02554704    -0.22800
F3924       F  0.72870495  0.60855923  0.98302790    -0.20100
F3925       F  0.76930810  0.58981226  0.00926223    -0.19800
F3926       F  0.64396400  0.55004277  0.12125138    -0.19800
F3927       F  0.66902887  0.58392311  0.15663920    -0.20100
F3928       F  0.68654062  0.53846198  0.14786701    -0.22800
C3929       C  0.79534597  0.93429081  0.05642535    -0.05700
C3930       C  0.81980938  0.94668265  0.03801978     0.00300
C3931       C  0.84515827  0.92940303  0.03453583    -0.08300
C3932       C  0.84460190  0.90041716  0.04863348    -0.05700
C3933       C  0.82267352  0.89048061  0.07255601     0.00300
C3934       C  0.79688820  0.90694423  0.07511849    -0.08200
C3935       C  0.77148486  0.89572435  0.09766440     0.62200
H3936       H  0.77539473  0.94679124  0.05748527     0.12900
H3937       H  0.86411681  0.88752809  0.04672825     0.12900
C3938       C  0.87412760  0.94249340  0.02068171     0.62400
F3939       F  0.74861994  0.91545714  0.09757071    -0.22800
F3940       F  0.78058815  0.89191757  0.13316577    -0.20100
F3941       F  0.76105331  0.86863374  0.08346777    -0.19800
F3942       F  0.87992917  0.97034850  0.03643332    -0.19800
F3943       F  0.87318419  0.94521058  0.98352417    -0.20100
F3944       F  0.89748589  0.92457016  0.02927371    -0.22800
C3945       C  0.78804010  0.88755853  0.36808378    -0.05700
C3946       C  0.79539118  0.87386204  0.40069986     0.00300
C3947       C  0.78777488  0.88773534  0.43336357    -0.08300
C3948       C  0.78213044  0.91841637  0.43238721    -0.05700
C3949       C  0.78745380  0.93442931  0.40040459     0.00300
C3950       C  0.78467537  0.91844476  0.36703620    -0.08200
C3951       C  0.78030944  0.93327760  0.33050799     0.62200
H3952       H  0.79238034  0.87611839  0.34311066     0.12900
H3953       H  0.77747044  0.93029966  0.45722801     0.12900
C3954       C  0.79300308  0.87275971  0.46926354     0.62400
F3955       F  0.77757502  0.91241443  0.30255340    -0.22800
F3956       F  0.80390884  0.95219167  0.32313079    -0.20100
F3957       F  0.75478091  0.94925539  0.33059891    -0.19800
F3958       F  0.82165136  0.87857655  0.48068422    -0.19800
F3959       F  0.78825881  0.84206733  0.46595043    -0.20100
F3960       F  0.77418433  0.88347016  0.49505902    -0.22800
C3961       C  0.58701214  0.94383493  0.09645786    -0.05700
C3962       C  0.57501681  0.95127180  0.13023099     0.00300
C3963       C  0.58747018  0.93807419  0.16158917    -0.08300
C3964       C  0.60795507  0.91530893  0.15717670    -0.05700
C3965       C  0.61749311  0.90492777  0.12305786     0.00300
C3966       C  0.60870676  0.92185587  0.09225380    -0.08200
C3967       C  0.62138538  0.91787570  0.05496571     0.62200
H3968       H  0.57864089  0.95496427  0.07269569     0.12900
H3969       H  0.61550889  0.90379406  0.18101842     0.12900
C3970       C  0.57882493  0.94673237  0.19988105     0.62400
F3971       F  0.61638858  0.94246759  0.03336453    -0.22800
F3972       F  0.60818965  0.89310476  0.03802806    -0.20100
F3973       F  0.65149581  0.91513036  0.05752485    -0.19800
F3974       F  0.54976014  0.93851140  0.20549215    -0.19800
F3975       F  0.58298150  0.97733404  0.20508588    -0.20100
F3976       F  0.59557588  0.93275262  0.22597277    -0.22800
C3977       C  0.55381738  0.59401751  0.15773883    -0.05700
C3978       C  0.54572674  0.57943168  0.12475077     0.00300
C3979       C  0.55398624  0.59361331  0.09193512    -0.08300
C3980       C  0.57359366  0.61861047  0.09383356    -0.05700
C3981       C  0.58661890  0.62867347  0.12686839     0.00300
C3982       C  0.57264802  0.61963392  0.15904340    -0.08200
C3983       C  0.57356943  0.63826678  0.19349492     0.62200
H3984       H  0.54500782  0.58574476  0.18294323     0.12900
H3985       H  0.58243943  0.62755643  0.06902307     0.12900
C3986       C  0.54407625  0.58181294  0.05484042     0.62400
F3987       F  0.54530719  0.64149029  0.20584030    -0.22800
F3988       F  0.58516562  0.66676267  0.18760235    -0.20100
F3989       F  0.58973972  0.62417757  0.21998793    -0.19800
F3990       F  0.51376245  0.57934013  0.05302247    -0.19800
F3991       F  0.55601583  0.55413710  0.04850386    -0.20100
F3992       F  0.55296622  0.60071153  0.02733663    -0.22800
C3993       C  0.90562093  0.55227379  0.10120717    -0.05700
C3994       C  0.92135022  0.54783069  0.13399814     0.00300
C3995       C  0.90996459  0.56065476  0.16618108    -0.08300
C3996       C  0.88555668  0.57920600  0.16336043    -0.05700
C3997       C  0.87347459  0.58805190  0.12983322     0.00300
C3998       C  0.88110184  0.57107802  0.09885047    -0.08200
C3999       C  0.86227700  0.56917425  0.06470267     0.62200
H4000       H  0.91242924  0.54078902  0.07691788     0.12900
H4001       H  0.87768858  0.58997594  0.18749020     0.12900
C4002       C  0.92405858  0.55675643  0.20343555     0.62400
F4003       F  0.86143552  0.54012131  0.05114866    -0.22800
F4004       F  0.87398403  0.58776000  0.03858083    -0.20100
F4005       F  0.83362181  0.57660623  0.07160751    -0.19800
F4006       F  0.95226875  0.56910568  0.20385838    -0.19800
F4007       F  0.92465069  0.52664720  0.21188227    -0.20100
F4008       F  0.90882418  0.57094491  0.23047560    -0.22800
C4009       C  0.92709588  0.92180866  0.17079029    -0.05700
C4010       C  0.94850598  0.92096589  0.14422712     0.00300
C4011       C  0.95163093  0.89422760  0.12414903    -0.08300
C4012       C  0.93045304  0.87075558  0.12784878    -0.05700
C4013       C  0.90556683  0.87336285  0.15014002     0.00300
C4014       C  0.90557883  0.89873975  0.17459043    -0.08200
C4015       C  0.88292536  0.90295960  0.20411550     0.62200
H4016       H  0.92641198  0.94188381  0.18739896     0.12900
H4017       H  0.93229188  0.85167677  0.11018750     0.12900
C4018       C  0.97621193  0.89095320  0.09728108     0.62400
F4019       F  0.88538647  0.88056556  0.22946195    -0.22800
F4020       F  0.85474610  0.90299457  0.18983336    -0.20100
F4021       F  0.88724263  0.92995050  0.22249440    -0.19800
F4022       F  0.00241571  0.90256215  0.11169582    -0.19800
F4023       F  0.96931882  0.90610083  0.06594967    -0.20100
F4024       F  0.98036174  0.86116901  0.08845444    -0.22800
C4025       C  0.57864765  0.61414806  0.33115866    -0.05700
C4026       C  0.58021938  0.63542747  0.35979186     0.00300
C4027       C  0.55956345  0.63027966  0.38841438    -0.08300
C4028       C  0.54402371  0.60240405  0.39081579    -0.05700
C4029       C  0.54579878  0.57976308  0.36465283     0.00300
C4030       C  0.56240675  0.58645810  0.33306894    -0.08200
C4031       C  0.56514006  0.56375957  0.30237020     0.62200
H4032       H  0.59289870  0.61778610  0.30851707     0.12900
H4033       H  0.52998126  0.59807216  0.41365453     0.12900
C4034       C  0.55136850  0.65447926  0.41513869     0.62400
F4035       F  0.58522077  0.57319479  0.27683481    -0.22800
F4036       F  0.53831816  0.55939517  0.28481790    -0.20100
F4037       F  0.57449373  0.53680631  0.31596285    -0.19800
F4038       F  0.54630235  0.68053012  0.39652641    -0.19800
F4039       F  0.57313723  0.65889242  0.44114300    -0.20100
F4040       F  0.52575119  0.64712933  0.43313561    -0.22800
C4041       C  0.59618638  0.95478156  0.36435724    -0.05700
C4042       C  0.57260192  0.94848302  0.38718404     0.00300
C4043       C  0.57644241  0.92552874  0.41344683    -0.08300
C4044       C  0.60217875  0.90847206  0.41308696    -0.05700
C4045       C  0.62507679  0.91286159  0.38817904     0.00300
C4046       C  0.62284180  0.93896382  0.36560830    -0.08200
C4047       C  0.64830274  0.95283552  0.34498859     0.62200
H4048       H  0.59379431  0.97315213  0.34568001     0.12900
H4049       H  0.60329173  0.88961387  0.43124100     0.12900
C4050       C  0.55424472  0.91645326  0.44191006     0.62400
F4051       F  0.64328070  0.98231234  0.33579761    -0.22800
F4052       F  0.65229682  0.93720189  0.31309567    -0.20100
F4053       F  0.67344614  0.95356780  0.36650893    -0.19800
F4054       F  0.54918149  0.88571050  0.44052065    -0.19800
F4055       F  0.52754242  0.92955429  0.43779615    -0.20100
F4056       F  0.56561305  0.92416212  0.47576048    -0.22800
C4057       C  0.92550196  0.87085356  0.38436482    -0.05700
C4058       C  0.89804391  0.87659343  0.36748163     0.00300
C4059       C  0.89521428  0.90549273  0.35105184    -0.08300
C4060       C  0.91800923  0.92722594  0.35576686    -0.05700
C4061       C  0.94328206  0.92237753  0.37656169     0.00300
C4062       C  0.94756562  0.89345031  0.39029355    -0.08200
C4063       C  0.97546132  0.88651849  0.41080472     0.62200
H4064       H  0.92999324  0.84875572  0.39379309     0.12900
H4065       H  0.91552989  0.94915878  0.34379049     0.12900
C4066       C  0.86888497  0.91677713  0.32973418     0.62400
F4067       F  0.97804664  0.90493626  0.44104729    -0.22800
F4068       F  0.99925310  0.89141995  0.38864077    -0.20100
F4069       F  0.97568856  0.85708302  0.42229828    -0.19800
F4070       F  0.85844992  0.94167127  0.34740268    -0.19800
F4071       F  0.84581749  0.89661907  0.32491884    -0.20100
F4072       F  0.87795449  0.92528361  0.29574013    -0.22800
C4073       C  0.90054992  0.54672905  0.34857004    -0.05700
C4074       C  0.91609515  0.54182534  0.38086292     0.00300
C4075       C  0.90230721  0.55032119  0.41386350    -0.08300
C4076       C  0.87694794  0.56805347  0.41247856    -0.05700
C4077       C  0.86410464  0.57732804  0.37967199     0.00300
C4078       C  0.87429717  0.56293633  0.34725066    -0.08200
C4079       C  0.85853789  0.56478506  0.31065709     0.62200
H4080       H  0.90967358  0.53832448  0.32374191     0.12900
H4081       H  0.86867749  0.57687803  0.43743141     0.12900
C4082       C  0.91416795  0.54154462  0.45085482     0.62400
F4083       F  0.87107600  0.54684424  0.28470901    -0.22800
F4084       F  0.85942699  0.59375689  0.29781457    -0.20100
F4085       F  0.82982502  0.55457736  0.31377196    -0.19800
F4086       F  0.94078642  0.55628818  0.45794314    -0.19800
F4087       F  0.91752025  0.51084316  0.45192597    -0.20100
F4088       F  0.89535591  0.54895202  0.47832940    -0.22800
O4089       O  0.52011602  0.53651191  0.84180015    -0.72800
O4090       O  0.97269296  0.96000169  0.85257800    -0.73800
O4091       O  0.95941657  0.52107482  0.84821808    -0.62400
O4092       O  0.53473666  0.97293514  0.85097788    -0.70800
O4093       O  0.53658250  0.97909468  0.91034033    -0.70400
O4094       O  0.96314913  0.52463572  0.90756150    -0.61600
O4095       O  0.97553735  0.96255450  0.91245114    -0.74100
O4096       O  0.52233248  0.54305727  0.90091177    -0.72900
Cu4097     Cu  0.99585505  0.99750126  0.84640049     1.04600
Cu4098     Cu  0.49962982  0.50228321  0.90853880     1.04300
C4099       C  0.52836950  0.55253609  0.86892490     0.93400
C4100       C  0.96589764  0.94944785  0.88323125     0.92500
C4101       C  0.94854760  0.52926424  0.87869355     0.84700
C4102       C  0.54696951  0.96750479  0.88182598     0.90900
O4103       O  0.53928828  0.97856200  0.65844134    -0.72800
O4104       O  0.96243594  0.52564352  0.65704936    -0.73800
O4105       O  0.97926846  0.96274884  0.66414201    -0.62400
O4106       O  0.52360600  0.54182459  0.65957869    -0.70800
O4107       O  0.52148219  0.53845506  0.60004206    -0.70400
O4108       O  0.97507889  0.96019571  0.60448023    -0.61600
O4109       O  0.95889215  0.52254137  0.59763958    -0.74100
O4110       O  0.53577295  0.97611348  0.59897240    -0.72900
Cu4111     Cu  0.00193969  0.00196098  0.66299318     1.04600
Cu4112     Cu  0.49753271  0.99826305  0.59910747     1.04300
C4113       C  0.54943851  0.96961844  0.62824735     0.93400
C4114       C  0.94848402  0.53139597  0.62771411     0.92500
C4115       C  0.97011617  0.94884551  0.63555956     0.84700
C4116       C  0.52931974  0.55308779  0.62874509     0.90900
N4117       N  0.67185488  0.80418175  0.50263572    -0.36500
N4118       N  0.66641561  0.75542799  0.55739815    -0.57000
N4119       N  0.65631895  0.71200659  0.49991203    -0.36500
N4120       N  0.65719339  0.76130538  0.94318394    -0.57000
C4121       C  0.67844791  0.81986889  0.53341976     0.27100
C4122       C  0.67475949  0.82255667  0.97399613     0.27100
C4123       C  0.65039319  0.69460867  0.52914218     0.27100
C4124       C  0.64332120  0.69779638  0.96829530     0.27100
C4125       C  0.67750272  0.77853861  0.57791075     0.35700
C4126       C  0.67120396  0.72973447  0.57579664     0.35700
C4127       C  0.67200604  0.78360409  0.92570305     0.35700
C4128       C  0.66069270  0.73562713  0.92388439     0.35700
C4129       C  0.68975174  0.84795086  0.52427771    -0.21800
C4130       C  0.68562657  0.84975321  0.98786266    -0.21800
C4131       C  0.63627363  0.66826085  0.51728869    -0.21800
C4132       C  0.63002255  0.67072070  0.97793577    -0.21800
C4133       C  0.69094807  0.76691339  0.60854554    -0.22800
C4134       C  0.68611877  0.73631628  0.60776823    -0.22800
C4135       C  0.68641999  0.77078951  0.89675744    -0.22800
C4136       C  0.67792360  0.74118531  0.89440563    -0.22800
C4137       C  0.67425141  0.80960609  0.56953052    -0.18200
C4138       C  0.67260351  0.81485707  0.93622442    -0.18200
C4139       C  0.64842924  0.70714091  0.93222959    -0.18200
C4140       C  0.65927919  0.70108863  0.56573021    -0.18200
H4141       H  0.69824677  0.86529050  0.54263584     0.14700
H4142       H  0.69467417  0.86848866  0.97290413     0.14700
H4143       H  0.62966810  0.64918247  0.53337312     0.14700
H4144       H  0.62061432  0.65355825  0.96007662     0.14700
H4145       H  0.70429598  0.77850902  0.62881191     0.13000
H4146       H  0.69327173  0.72069020  0.62807347     0.13000
H4147       H  0.70352522  0.78009577  0.88043855     0.13000
H4148       H  0.68546788  0.72517949  0.87475759     0.13000
H4149       H  0.66142413  0.78324447  0.50179337     0.26300
H4150       H  0.66957284  0.73136372  0.49967539     0.26300
C4151       C  0.87122349  0.85712116  0.87667280     0.86600
C4152       C  0.87530503  0.82975944  0.90103701    -0.53600
C4153       C  0.85009812  0.81362111  0.90758757     0.09500
C4154       C  0.82303706  0.82579539  0.88793894     0.20500
C4155       C  0.85627519  0.84342638  0.84168117    -0.54400
C4156       C  0.83004134  0.82750396  0.84662412     0.09600
C4157       C  0.84717192  0.87394459  0.89621197    -0.53900
C4158       C  0.82157523  0.85813092  0.90050399     0.10200
H4159       H  0.89530068  0.82491212  0.91549216     0.14700
H4160       H  0.80378097  0.81359599  0.89760289     0.00500
H4161       H  0.86437816  0.84906044  0.81508641     0.15000
H4162       H  0.84878116  0.89788593  0.90196433     0.14800
C4163       C  0.88018588  0.85688422  0.63602822     0.86600
C4164       C  0.85935039  0.84498585  0.66503450    -0.53600
C4165       C  0.83102753  0.83714163  0.65377484     0.09500
C4166       C  0.82744353  0.84149720  0.61133082     0.20500
C4167       C  0.87914521  0.83129089  0.60705017    -0.54400
C4168       C  0.85167398  0.82232822  0.59491411     0.09600
C4169       C  0.86354444  0.88203690  0.61935628    -0.53900
C4170       C  0.83737059  0.87450849  0.60368205     0.10200
H4171       H  0.86644221  0.84413606  0.69252820     0.14700
H4172       H  0.80625938  0.83635963  0.59819399     0.00500
H4173       H  0.89833660  0.82043316  0.59715800     0.15000
H4174       H  0.87356620  0.90435672  0.61652066     0.14800
C4175       C  0.61967657  0.64267934  0.62614347     0.86600
C4176       C  0.63888835  0.64855028  0.66076734    -0.53600
C4177       C  0.66776947  0.65659150  0.65464605     0.09500
C4178       C  0.67461676  0.65724099  0.61338044     0.20500
C4179       C  0.62381355  0.67089115  0.60300360    -0.54400
C4180       C  0.65229559  0.67834316  0.59498515     0.09600
C4181       C  0.63646028  0.61850765  0.60619076    -0.53900
C4182       C  0.66499894  0.62525127  0.60040741     0.10200
H4183       H  0.63168678  0.64347632  0.68771137     0.14700
H4184       H  0.69776136  0.66344127  0.60736213     0.00500
H4185       H  0.60542035  0.68251658  0.59123422     0.15000
H4186       H  0.62649873  0.59711835  0.59778633     0.14800
C4187       C  0.61092194  0.65145841  0.86555320     0.86600
C4188       C  0.61401985  0.67926646  0.88994708    -0.53600
C4189       C  0.64191948  0.68527284  0.90193434     0.09500
C4190       C  0.66495617  0.66454454  0.88544911     0.20500
C4191       C  0.63278557  0.65951653  0.83360109    -0.54400
C4192       C  0.66213151  0.66677274  0.84384748     0.09600
C4193       C  0.62639448  0.62708831  0.88675778    -0.53900
C4194       C  0.65522477  0.63204279  0.89257831     0.10200
H4195       H  0.59637245  0.69343413  0.89763331     0.14700
H4196       H  0.68551103  0.66948431  0.89922916     0.00500
H4197       H  0.62578585  0.65706510  0.80562013     0.15000
H4198       H  0.61575094  0.60605854  0.89390740     0.14800
N4199       N  0.82364617  0.96487493  0.46080011    -0.36500
N4200       N  0.75618461  0.49197323  0.90011075    -0.57000
N4201       N  0.73641626  0.52608731  0.46395006    -0.36500
N4202       N  0.77863846  0.51079522  0.51654206    -0.57000
C4203       C  0.81490193  0.97727673  0.92857961     0.27100
C4204       C  0.82694474  0.98637406  0.48654792     0.27100
C4205       C  0.71699603  0.52855643  0.93902216     0.27100
C4206       C  0.72321303  0.53578880  0.49430189     0.27100
C4207       C  0.77899902  0.98680452  0.88297988     0.35700
C4208       C  0.74739433  0.51792753  0.88682355     0.35700
C4209       C  0.80171910  0.00208345  0.53962902     0.35700
C4210       C  0.76290203  0.52698474  0.53930335     0.35700
C4211       C  0.82212682  0.00748441  0.93464024    -0.21800
C4212       C  0.82807247  0.01434038  0.47058667    -0.21800
C4213       C  0.69092215  0.53841683  0.95304300    -0.21800
C4214       C  0.69504751  0.54467231  0.48567185    -0.21800
C4215       C  0.78762654  0.00810382  0.85802894    -0.22800
C4216       C  0.76464241  0.52731680  0.85827662    -0.22800
C4217       C  0.79938136  0.00943200  0.57591287    -0.22800
C4218       C  0.77451374  0.52502303  0.57417172    -0.22800
C4219       C  0.79702347  0.96649979  0.89892026    -0.18200
C4220       C  0.82031696  0.98152899  0.52330364    -0.18200
C4221       C  0.73718175  0.54124310  0.52837927    -0.18200
C4222       C  0.72597715  0.53412439  0.90343027    -0.18200
H4223       H  0.81971919  0.02584611  0.91604862     0.14700
H4224       H  0.82936100  0.03595381  0.48420060     0.14700
H4225       H  0.67188579  0.54571955  0.93804728     0.14700
H4226       H  0.67935577  0.55447536  0.50363024     0.14700
H4227       H  0.80745911  0.00853765  0.84238971     0.13000
H4228       H  0.76313712  0.54781800  0.84306684     0.13000
H4229       H  0.81306616  0.00197836  0.59806259     0.12200
H4230       H  0.76623513  0.53510501  0.59857303     0.13000
H4231       H  0.82316832  0.94200788  0.46595727     0.26300
H4232       H  0.75858956  0.52204424  0.46065556     0.26300
N4233       N  0.83495914  0.69238437  0.50423442    -0.36500
N4234       N  0.84040784  0.73659788  0.94789737    -0.57000
N4235       N  0.84653409  0.78478626  0.50207274    -0.36500
N4236       N  0.84096505  0.74218828  0.56000553    -0.57000
C4237       C  0.83051885  0.67365173  0.97468253     0.27100
C4238       C  0.82751553  0.67747524  0.53470094     0.27100
C4239       C  0.85556513  0.79906391  0.97319271     0.27100
C4240       C  0.85481356  0.80228925  0.53096001     0.27100
C4241       C  0.82889904  0.71293882  0.92856877     0.35700
C4242       C  0.83605525  0.76152837  0.92800415     0.35700
C4243       C  0.82842821  0.71962724  0.57927663     0.35700
C4244       C  0.83589148  0.76832452  0.57789491     0.35700
C4245       C  0.81839697  0.64675507  0.98659787    -0.21800
C4246       C  0.81535851  0.64970796  0.52484717    -0.21800
C4247       C  0.87037730  0.82546836  0.98403033    -0.21800
C4248       C  0.86911320  0.82792917  0.51893827    -0.21800
C4249       C  0.81509404  0.72350294  0.89780187    -0.22800
C4250       C  0.82114651  0.75366988  0.89628199    -0.22800
C4251       C  0.81371482  0.73192184  0.60819404    -0.22800
C4252       C  0.81954780  0.76240311  0.60825001    -0.22800
C4253       C  0.83257001  0.68212693  0.93746939    -0.18200
C4254       C  0.83062783  0.68830991  0.57119892    -0.18200
C4255       C  0.84684110  0.79709795  0.56731338    -0.18200
C4256       C  0.84766756  0.79061043  0.93692961    -0.18200
H4257       H  0.80807228  0.62896897  0.97045352     0.14700
H4258       H  0.80563899  0.63319979  0.54262443     0.14700
H4259       H  0.87913484  0.84344051  0.96778583     0.14700
H4260       H  0.87791671  0.84645574  0.53503922     0.14700
H4261       H  0.80202181  0.71107911  0.87791259     0.13000
H4262       H  0.81519947  0.76770665  0.87393857     0.13000
H4263       H  0.79877648  0.72055927  0.62628605     0.13000
H4264       H  0.81191549  0.77831542  0.62785595     0.13000
H4265       H  0.84603748  0.71303771  0.50387921     0.26300
H4266       H  0.83239974  0.76605215  0.50259455     0.26300
N4267       N  0.80001985  0.83010435  0.74901138    -0.36500
N4268       N  0.75737242  0.84063685  0.80592279    -0.57000
N4269       N  0.71326586  0.85339187  0.75106851    -0.36500
N4270       N  0.75535099  0.84278740  0.69329703    -0.57000
C4271       C  0.81589450  0.82148211  0.77856158     0.27100
C4272       C  0.81515124  0.82315262  0.71876315     0.27100
C4273       C  0.69909690  0.86254046  0.78119587     0.27100
C4274       C  0.69670839  0.86046793  0.72168883     0.27100
C4275       C  0.77668544  0.82300552  0.82316331     0.35700
C4276       C  0.73335946  0.84163387  0.82687971     0.35700
C4277       C  0.77661318  0.83184503  0.67188225     0.35700
C4278       C  0.72994328  0.84193778  0.67350264     0.35700
C4279       C  0.84095724  0.80809653  0.76705403    -0.21800
C4280       C  0.84009354  0.80815803  0.72966445    -0.21800
C4281       C  0.67306149  0.87536308  0.77049630    -0.21800
C4282       C  0.67149945  0.87397788  0.73335658    -0.21800
C4283       C  0.76363377  0.81112979  0.85342773    -0.22800
C4284       C  0.73801359  0.82554128  0.85794810    -0.22800
C4285       C  0.76402781  0.82260964  0.63918408    -0.22800
C4286       C  0.73524254  0.83045488  0.63950237    -0.22800
C4287       C  0.80713043  0.82270422  0.81551171    -0.18200
C4288       C  0.80693145  0.82987013  0.68179625    -0.18200
C4289       C  0.70224790  0.85213106  0.68513082    -0.18200
C4290       C  0.70696790  0.85584102  0.81779268    -0.18200
H4291       H  0.85713470  0.79778002  0.78407244     0.14700
H4292       H  0.85587699  0.79765522  0.71249016     0.14700
H4293       H  0.65548723  0.88254196  0.78739334     0.14700
H4294       H  0.65289330  0.88069555  0.71729281     0.14700
H4295       H  0.77063577  0.79270161  0.86970817     0.13000
H4296       H  0.72448723  0.82379374  0.88141438     0.13000
H4297       H  0.77326950  0.80924424  0.61809988     0.13000
H4298       H  0.72003636  0.82726332  0.61716585     0.13000
H4299       H  0.78142707  0.84284555  0.74960455     0.26300
H4300       H  0.73100467  0.83941692  0.75049559     0.26300
C4301       C  0.64550442  0.88467739  0.87934797     0.86600
C4302       C  0.65682312  0.86757925  0.91379463    -0.53600
C4303       C  0.66928209  0.83977892  0.90733130     0.09500
C4304       C  0.66960211  0.83331473  0.86604949     0.20500
C4305       C  0.67290985  0.88671562  0.85524486    -0.54400
C4306       C  0.68468434  0.85987307  0.84706917     0.09600
C4307       C  0.62523563  0.86078030  0.86072492    -0.53900
C4308       C  0.63779429  0.83404976  0.85472885     0.10200
H4309       H  0.65183145  0.87544350  0.94071110     0.14700
H4310       H  0.67868444  0.81253385  0.85687208     0.00500
H4311       H  0.68289692  0.90660880  0.84441244     0.15000
H4312       H  0.60179498  0.86355956  0.85669536     0.14800
C4313       C  0.63813127  0.87650203  0.62193881     0.86600
C4314       C  0.66507691  0.87990722  0.64778004    -0.53600
C4315       C  0.67739091  0.85363653  0.65778270     0.09500
C4316       C  0.66240510  0.82581198  0.63953049     0.20500
C4317       C  0.65024225  0.85849396  0.58941890    -0.54400
C4318       C  0.66387620  0.83192458  0.59818576     0.09600
C4319       C  0.61753451  0.85330939  0.63953358    -0.53900
C4320       C  0.62971811  0.82711158  0.64854603     0.10200
H4321       H  0.67318251  0.90147674  0.65827014     0.14700
H4322       H  0.67128845  0.80501604  0.64988923     0.00500
H4323       H  0.64686595  0.86457628  0.56182085     0.15000
H4324       H  0.59460221  0.85747105  0.64487731     0.14800
C4325       C  0.85769583  0.61967256  0.62766513     0.86600
C4326       C  0.83076730  0.61944247  0.65279769    -0.53600
C4327       C  0.82054795  0.64717196  0.66107586     0.09500
C4328       C  0.83773167  0.67273726  0.64268360     0.20500
C4329       C  0.84818471  0.63774715  0.59416570    -0.54400
C4330       C  0.83664072  0.66564011  0.60128328     0.09600
C4331       C  0.88020921  0.64151106  0.64532046    -0.53900
C4332       C  0.86983037  0.66856178  0.65400966     0.10200
H4333       H  0.82153553  0.59908006  0.66445996     0.14700
H4334       H  0.83060318  0.69467559  0.65199469     0.00500
H4335       H  0.85449334  0.63143131  0.56736543     0.15000
H4336       H  0.90299422  0.63604689  0.65045546     0.14800
C4337       C  0.85378550  0.61089846  0.87744204     0.86600
C4338       C  0.84510678  0.62875350  0.91235484    -0.53600
C4339       C  0.83831957  0.65880813  0.90708692     0.09500
C4340       C  0.84252734  0.66720820  0.86644701     0.20500
C4341       C  0.82763332  0.61601756  0.85127775    -0.54400
C4342       C  0.82132425  0.64530339  0.84525265     0.09600
C4343       C  0.87943924  0.62971210  0.86411729    -0.53900
C4344       C  0.87455550  0.65863959  0.85822258     0.10200
H4345       H  0.84648267  0.61890495  0.93872858     0.14700
H4346       H  0.83993411  0.69042140  0.85796383     0.00500
H4347       H  0.81427338  0.59813877  0.83918694     0.15000
H4348       H  0.90144952  0.62138582  0.86588472     0.14800
N4349       N  0.53211394  0.73529415  0.77777492    -0.36500
N4350       N  0.49869418  0.74352595  0.84689213    -0.57000
N4351       N  0.95292170  0.77769591  0.77976404    -0.36500
N4352       N  0.49295477  0.75462778  0.72162134    -0.57000
C4353       C  0.54794757  0.72469717  0.80588724     0.27100
C4354       C  0.54735797  0.73045830  0.74747581     0.27100
C4355       C  0.93839610  0.77207178  0.81070680     0.27100
C4356       C  0.93347992  0.77235934  0.75227664     0.27100
C4357       C  0.52548277  0.75699719  0.84881801     0.35700
C4358       C  0.98202760  0.76369771  0.84752101     0.35700
C4359       C  0.51825215  0.75912768  0.70416300     0.35700
C4360       C  0.97040633  0.76562680  0.70642946     0.35700
C4361       C  0.56993832  0.70705406  0.79238290    -0.21800
C4362       C  0.57054611  0.71216188  0.75545757    -0.21800
C4363       C  0.90866547  0.76775189  0.80286889    -0.21800
C4364       C  0.90563787  0.76773677  0.76587326    -0.21800
C4365       C  0.52306144  0.78801503  0.84977328    -0.22800
C4366       C  0.99631293  0.79138725  0.84843327    -0.22800
C4367       C  0.51379603  0.77624039  0.67344310    -0.22800
C4368       C  0.98116548  0.77995739  0.67628196    -0.22800
C4369       C  0.55089823  0.74228258  0.83807193    -0.18200
C4370       C  0.54539872  0.74947740  0.71728170    -0.18200
C4371       C  0.94128003  0.76450554  0.71671340    -0.18200
C4372       C  0.95220406  0.75864820  0.84052806    -0.18200
H4373       H  0.58781961  0.69802321  0.80799923     0.14700
H4374       H  0.58848661  0.70699849  0.73792794     0.14700
H4375       H  0.89175184  0.76051420  0.82136346     0.14700
H4376       H  0.88598588  0.76094841  0.75074189     0.14700
H4377       H  0.54063407  0.80478935  0.84835853     0.13000
H4378       H  0.98650865  0.81311821  0.84636455     0.13000
H4379       H  0.52990069  0.78336441  0.65386714     0.13000
H4380       H  0.96956689  0.79402313  0.65758437     0.13000
H4381       H  0.51673567  0.75198049  0.78023085     0.26300
H4382       H  0.97568344  0.77920829  0.77742258     0.26300
N4383       N  0.69784687  0.66173577  0.75157950    -0.36500
N4384       N  0.74246736  0.65813022  0.80861546    -0.57000
N4385       N  0.78796954  0.65317874  0.75330491    -0.36500
N4386       N  0.74441931  0.66003501  0.69526458    -0.57000
C4387       C  0.68269507  0.67316568  0.77973594     0.27100
C4388       C  0.68389099  0.66940729  0.72028723     0.27100
C4389       C  0.80474490  0.65942887  0.78305006     0.27100
C4390       C  0.80431821  0.66058394  0.72420640     0.27100
C4391       C  0.71946076  0.66617553  0.82970711     0.35700
C4392       C  0.76705222  0.65652813  0.83035221     0.35700
C4393       C  0.71980050  0.64886027  0.67853674     0.35700
C4394       C  0.76723292  0.64705969  0.67853441     0.35700
C4395       C  0.65963943  0.68944308  0.76583884    -0.21800
C4396       C  0.66024054  0.68687131  0.72856089    -0.21800
C4397       C  0.83151332  0.67175061  0.77296806    -0.21800
C4398       C  0.83087985  0.67306606  0.73581441    -0.21800
C4399       C  0.73127563  0.67294132  0.86390110    -0.22800
C4400       C  0.76009358  0.66471206  0.86493329    -0.22800
C4401       C  0.72734096  0.62786994  0.65304901    -0.22800
C4402       C  0.75730630  0.62755561  0.65167687    -0.22800
C4403       C  0.68888659  0.66906963  0.81753645    -0.18200
C4404       C  0.69099788  0.65869097  0.68503963    -0.18200
C4405       C  0.79683790  0.65243237  0.68817338    -0.18200
C4406       C  0.79679808  0.65370836  0.81898262    -0.18200
H4407       H  0.64415706  0.70233008  0.78096709     0.14700
H4408       H  0.64503987  0.69686845  0.70974472     0.14700
H4409       H  0.84919031  0.67992311  0.79059396     0.14700
H4410       H  0.84771670  0.68273004  0.71934479     0.14700
H4411       H  0.72310495  0.68784637  0.88405777     0.13000
H4412       H  0.77522029  0.66852724  0.88741895     0.13000
H4413       H  0.71285291  0.61228031  0.63974804     0.13000
H4414       H  0.77008674  0.61294733  0.63499054     0.13000
H4415       H  0.71473863  0.64657621  0.75338730     0.26300
H4416       H  0.76807678  0.64101796  0.75284545     0.26300
C4417       C  0.89914499  0.70463397  0.88270601    -0.05700
C4418       C  0.89990882  0.68057578  0.85803198     0.00300
C4419       C  0.92481701  0.67845967  0.83514074    -0.08300
C4420       C  0.94236171  0.70447447  0.83058232    -0.05700
C4421       C  0.93871610  0.72993703  0.85218499     0.00300
C4422       C  0.91925168  0.72879063  0.88112297    -0.08200
C4423       C  0.91859363  0.75417763  0.90817717     0.62200
H4424       H  0.88251384  0.70469672  0.90303638     0.12900
H4425       H  0.95923454  0.70525885  0.81026736     0.12900
C4426       C  0.93600886  0.64926726  0.81940756     0.62400
F4427       F  0.90857838  0.77899113  0.89069053    -0.22800
F4428       F  0.94653653  0.76038511  0.92191389    -0.20100
F4429       F  0.90055275  0.74754518  0.93689349    -0.19800
F4430       F  0.91385033  0.63162255  0.80365835    -0.19800
F4431       F  0.94933699  0.63344317  0.84681667    -0.20100
F4432       F  0.95695464  0.65462873  0.79331940    -0.22800
C4433       C  0.88932755  0.72013714  0.65363024    -0.05700
C4434       C  0.88868626  0.69232640  0.67060030     0.00300
C4435       C  0.90588462  0.68816675  0.70231076    -0.08300
C4436       C  0.92401498  0.71198982  0.71485581    -0.05700
C4437       C  0.92343388  0.74034041  0.69889286     0.00300
C4438       C  0.90574428  0.74454187  0.66796352    -0.08200
C4439       C  0.90223596  0.77397064  0.64946853     0.62200
H4440       H  0.87633500  0.72308621  0.62919227     0.12900
H4441       H  0.93756196  0.70900613  0.73892040     0.12900
C4442       C  0.90430655  0.66088201  0.72637069     0.62400
F4443       F  0.87274483  0.77988714  0.64881662    -0.22800
F4444       F  0.91224026  0.77132534  0.61446471    -0.20100
F4445       F  0.91686950  0.79778967  0.66656989    -0.19800
F4446       F  0.93107858  0.64714577  0.72659099    -0.19800
F4447       F  0.88277282  0.63978718  0.71688121    -0.20100
F4448       F  0.89820226  0.67079520  0.76079876    -0.22800
C4449       C  0.58415932  0.75673579  0.67239957    -0.05700
C4450       C  0.57183789  0.76623880  0.70470613     0.00300
C4451       C  0.57952834  0.79530847  0.71878599    -0.08300
C4452       C  0.60169424  0.81221790  0.70174497    -0.05700
C4453       C  0.61228819  0.80377768  0.66787356     0.00300
C4454       C  0.60140325  0.77651258  0.65173264    -0.08200
C4455       C  0.60286989  0.76870352  0.61196270     0.62200
H4456       H  0.57634430  0.73558611  0.66048868     0.12900
H4457       H  0.60846652  0.83403771  0.71258968     0.12900
C4458       C  0.56183821  0.81055750  0.74797660     0.62400
F4459       F  0.57463927  0.76436883  0.59815785    -0.22800
F4460       F  0.61749605  0.74234393  0.60804843    -0.20100
F4461       F  0.61623189  0.79071818  0.59176476    -0.19800
F4462       F  0.55825615  0.79232881  0.77733489    -0.19800
F4463       F  0.53446715  0.81726960  0.73425701    -0.20100
F4464       F  0.57528849  0.83706797  0.76018190    -0.22800
C4465       C  0.60470555  0.79690396  0.88294600    -0.05700
C4466       C  0.62040940  0.80601670  0.85245574     0.00300
C4467       C  0.62028496  0.78783792  0.82135727    -0.08300
C4468       C  0.59978405  0.76416129  0.81920162    -0.05700
C4469       C  0.58006226  0.75746072  0.84745367     0.00300
C4470       C  0.58524535  0.77202325  0.88147277    -0.08200
C4471       C  0.57008706  0.76349061  0.91634884     0.62200
H4472       H  0.60717741  0.80979259  0.90791139     0.12900
H4473       H  0.59721501  0.75393401  0.79313497     0.12900
C4474       C  0.63988283  0.79474473  0.78934466     0.62400
F4475       F  0.59108212  0.75687533  0.94224527    -0.22800
F4476       F  0.55141306  0.73875334  0.91254298    -0.20100
F4477       F  0.55418607  0.78736436  0.92867765    -0.19800
F4478       F  0.66902442  0.79243426  0.79930556    -0.19800
F4479       F  0.63500620  0.82340327  0.77750233    -0.20100
F4480       F  0.63459993  0.77513666  0.76056083    -0.22800
C4481       C  0.70380022  0.61119765  0.90426837    -0.05700
C4482       C  0.67594403  0.60715651  0.88768754     0.00300
C4483       C  0.67052381  0.58113328  0.86466681    -0.08300
C4484       C  0.69028022  0.55804869  0.86662968    -0.05700
C4485       C  0.71582597  0.56130910  0.88690854     0.00300
C4486       C  0.72479281  0.58922608  0.90169597    -0.08200
C4487       C  0.75646986  0.59543505  0.91354094     0.62200
H4488       H  0.70919402  0.63139163  0.91961119     0.12900
H4489       H  0.68480307  0.53619304  0.85484026     0.12900
C4490       C  0.64533393  0.57616564  0.83746931     0.62400
F4491       F  0.77408889  0.59274968  0.88385970    -0.22800
F4492       F  0.76543402  0.57532595  0.93922931    -0.20100
F4493       F  0.76074705  0.62406449  0.92763617    -0.19800
F4494       F  0.65076679  0.55313403  0.81326696    -0.19800
F4495       F  0.64193207  0.60135311  0.81694790    -0.20100
F4496       F  0.61972810  0.56816987  0.85471163    -0.22800
C4497       C  0.70456172  0.61331016  0.55939797    -0.05700
C4498       C  0.68477353  0.60283852  0.58497697     0.00300
C4499       C  0.68605004  0.57238082  0.59677962    -0.08300
C4500       C  0.70501735  0.55309394  0.57908821    -0.05700
C4501       C  0.72384292  0.56356438  0.55238939     0.00300
C4502       C  0.72485605  0.59447213  0.54386964    -0.08200
C4503       C  0.74378867  0.60739498  0.51454154     0.62200
H4504       H  0.70364209  0.63643544  0.55078731     0.12900
H4505       H  0.70448687  0.52935577  0.58515765     0.12900
C4506       C  0.66829678  0.55907473  0.62755460     0.62400
F4507       F  0.75116350  0.63715299  0.52197936    -0.22800
F4508       F  0.72782735  0.60591932  0.48259683    -0.20100
F4509       F  0.76949157  0.59198678  0.51117576    -0.19800
F4510       F  0.64244773  0.54623719  0.61374272    -0.19800
F4511       F  0.66214262  0.58022597  0.65367539    -0.20100
F4512       F  0.68381502  0.53691518  0.64475165    -0.22800
C4513       C  0.79863958  0.93739539  0.55635996    -0.05700
C4514       C  0.82311685  0.95111487  0.53936175     0.00300
C4515       C  0.84954324  0.93543298  0.53757993    -0.08300
C4516       C  0.85013261  0.90656227  0.55199465    -0.05700
C4517       C  0.82756952  0.89503961  0.57420386     0.00300
C4518       C  0.80078881  0.91007155  0.57506802    -0.08200
C4519       C  0.77495375  0.89763334  0.59597312     0.62200
H4520       H  0.77804537  0.94885236  0.55616688     0.12900
H4521       H  0.87037105  0.89461253  0.55070564     0.12900
C4522       C  0.87808206  0.95004785  0.52450095     0.62400
F4523       F  0.75123411  0.91627406  0.59440571    -0.22800
F4524       F  0.78283896  0.89423980  0.63195820    -0.20100
F4525       F  0.76616213  0.87017526  0.58127386    -0.19800
F4526       F  0.88153571  0.97874479  0.53878635    -0.19800
F4527       F  0.87814000  0.95131974  0.48719436    -0.20100
F4528       F  0.90228915  0.93419874  0.53539839    -0.22800
C4529       C  0.78995204  0.88854684  0.86437151    -0.05700
C4530       C  0.79447602  0.87501611  0.89798462     0.00300
C4531       C  0.78355628  0.88888095  0.92911235    -0.08300
C4532       C  0.77677649  0.91925694  0.92669914    -0.05700
C4533       C  0.78550152  0.93519639  0.89584100     0.00300
C4534       C  0.78659694  0.91939148  0.86256561    -0.08200
C4535       C  0.78617311  0.93456045  0.82583580     0.62200
H4536       H  0.79632607  0.87707738  0.84022198     0.12900
H4537       H  0.76995228  0.93143090  0.95047421     0.12900
C4538       C  0.78351362  0.87307735  0.96512111     0.62400
F4539       F  0.78792870  0.91405819  0.79761801    -0.22800
F4540       F  0.80949535  0.95471952  0.82294647    -0.20100
F4541       F  0.76022112  0.94944798  0.82145048    -0.19800
F4542       F  0.81205032  0.86979479  0.97737800    -0.19800
F4543       F  0.77002351  0.84504854  0.96105040    -0.20100
F4544       F  0.76850607  0.88899153  0.99091047    -0.22800
C4545       C  0.58695412  0.94198844  0.59259688    -0.05700
C4546       C  0.57630306  0.95053929  0.62674936     0.00300
C4547       C  0.59089164  0.93952571  0.65796003    -0.08300
C4548       C  0.61218790  0.91764420  0.65354985    -0.05700
C4549       C  0.62074475  0.90623673  0.61952092     0.00300
C4550       C  0.60961429  0.92107189  0.58823063    -0.08200
C4551       C  0.62099427  0.91624284  0.55037223     0.62200
H4552       H  0.57686462  0.95144395  0.56874909     0.12900
H4553       H  0.62112792  0.90749466  0.67758390     0.12900
C4554       C  0.58387524  0.94963642  0.69625491     0.62400
F4555       F  0.61300563  0.93909134  0.52741876    -0.22800
F4556       F  0.60936938  0.88968428  0.53595629    -0.20100
F4557       F  0.65134362  0.91624124  0.55116322    -0.19800
F4558       F  0.55575281  0.94002774  0.70494288    -0.19800
F4559       F  0.58641816  0.98056148  0.69889816    -0.20100
F4560       F  0.60291589  0.93810694  0.72180405    -0.22800
C4561       C  0.55440363  0.59726084  0.65999244    -0.05700
C4562       C  0.54586734  0.58274305  0.62708776     0.00300
C4563       C  0.55331266  0.59744199  0.59423888    -0.08300
C4564       C  0.57402437  0.62150085  0.59572303    -0.05700
C4565       C  0.58746905  0.63126064  0.62853859     0.00300
C4566       C  0.57335296  0.62283731  0.66081362    -0.08200
C4567       C  0.57405063  0.64248828  0.69441144     0.62200
H4568       H  0.54571737  0.58913679  0.68532917     0.12900
H4569       H  0.58280820  0.63022311  0.57075216     0.12900
C4570       C  0.54044228  0.58797390  0.55755998     0.62400
F4571       F  0.54564550  0.64709408  0.70542153    -0.22800
F4572       F  0.58673055  0.67035820  0.68757467    -0.20100
F4573       F  0.58913358  0.62880079  0.72217093    -0.19800
F4574       F  0.51012675  0.58682607  0.55913225    -0.19800
F4575       F  0.55057329  0.56025272  0.54754752    -0.20100
F4576       F  0.54816219  0.60808667  0.53075244    -0.22800
C4577       C  0.90643723  0.55567500  0.59495438    -0.05700
C4578       C  0.92055869  0.54890851  0.62817674     0.00300
C4579       C  0.90731070  0.55894094  0.66061872    -0.08300
C4580       C  0.88332653  0.57800471  0.65814783    -0.05700
C4581       C  0.87253475  0.58885007  0.62496469     0.00300
C4582       C  0.88159385  0.57405395  0.59297561    -0.08200
C4583       C  0.86406784  0.57379155  0.55776712     0.62200
H4584       H  0.91455041  0.54612987  0.57009888     0.12900
H4585       H  0.87476675  0.58751956  0.68270721     0.12900
C4586       C  0.91874546  0.55116884  0.69814529     0.62400
F4587       F  0.86321882  0.54520087  0.54285324    -0.22800
F4588       F  0.87715134  0.59312082  0.53337234    -0.20100
F4589       F  0.83525895  0.58140360  0.56322569    -0.19800
F4590       F  0.94655248  0.56379545  0.70368398    -0.19800
F4591       F  0.91931538  0.52035893  0.70180865    -0.20100
F4592       F  0.90119879  0.56205701  0.72513546    -0.22800
C4593       C  0.93544320  0.91702061  0.67031833    -0.05700
C4594       C  0.95250183  0.92024881  0.63936638     0.00300
C4595       C  0.95216152  0.89641481  0.61388363    -0.08300
C4596       C  0.93144072  0.87256131  0.61764686    -0.05700
C4597       C  0.91096160  0.87101736  0.64624248     0.00300
C4598       C  0.91518469  0.89287615  0.67489548    -0.08200
C4599       C  0.89883858  0.89183476  0.71050121     0.62200
H4600       H  0.93711045  0.93471889  0.69053574     0.12900
H4601       H  0.92945187  0.85685120  0.59542253     0.12900
C4602       C  0.97286784  0.89622935  0.58207244     0.62400
F4603       F  0.90336193  0.86466457  0.72709682    -0.22800
F4604       F  0.86925624  0.89629355  0.70478324    -0.20100
F4605       F  0.90887505  0.91389478  0.73465845    -0.19800
F4606       F  0.00112855  0.90395014  0.59367065    -0.19800
F4607       F  0.96379363  0.91636138  0.55629721    -0.20100
F4608       F  0.97360624  0.86813544  0.56588772    -0.22800
C4609       C  0.57755561  0.61625842  0.82877306    -0.05700
C4610       C  0.57951879  0.63739073  0.85741887     0.00300
C4611       C  0.55848447  0.63294741  0.88561683    -0.08300
C4612       C  0.54317674  0.60498408  0.88882216    -0.05700
C4613       C  0.54471697  0.58219166  0.86266002     0.00300
C4614       C  0.56064013  0.58903686  0.83054881    -0.08200
C4615       C  0.56137645  0.56727925  0.79863956     0.62200
H4616       H  0.59147942  0.61991561  0.80585160     0.12900
H4617       H  0.52912718  0.60108077  0.91177529     0.12900
C4618       C  0.54881786  0.65847816  0.90952272     0.62400
F4619       F  0.57999760  0.57731108  0.77183103    -0.22800
F4620       F  0.53358137  0.56386977  0.78329341    -0.20100
F4621       F  0.57112446  0.53979254  0.81002595    -0.19800
F4622       F  0.54570116  0.68376889  0.88870386    -0.19800
F4623       F  0.56869786  0.66387319  0.93755374    -0.20100
F4624       F  0.52176452  0.65220693  0.92472301    -0.22800
C4625       C  0.59648696  0.95378485  0.86066958    -0.05700
C4626       C  0.57365400  0.94828152  0.88482158     0.00300
C4627       C  0.57817434  0.92617654  0.91194169    -0.08300
C4628       C  0.60392525  0.90925196  0.91141461    -0.05700
C4629       C  0.62626735  0.91303616  0.88567144     0.00300
C4630       C  0.62323065  0.93818403  0.86168818    -0.08200
C4631       C  0.64800950  0.95144392  0.83930777     0.62200
H4632       H  0.59344967  0.97145271  0.84117783     0.12900
H4633       H  0.60541859  0.89094934  0.93029669     0.12900
C4634       C  0.55678227  0.91774402  0.94161882     0.62400
F4635       F  0.64204472  0.98004328  0.82746491    -0.22800
F4636       F  0.65211776  0.93405906  0.80885032    -0.20100
F4637       F  0.67339470  0.95424498  0.86024394    -0.19800
F4638       F  0.55173068  0.88698963  0.94132915    -0.19800
F4639       F  0.52994089  0.93068941  0.93836552    -0.20100
F4640       F  0.56913798  0.92613208  0.97475379    -0.22800
C4641       C  0.92575846  0.87254518  0.88722183    -0.05700
C4642       C  0.89803860  0.87912992  0.87162513     0.00300
C4643       C  0.89518112  0.90872819  0.85721547    -0.08300
C4644       C  0.91757719  0.93043555  0.86380111    -0.05700
C4645       C  0.94344672  0.92448053  0.88267513     0.00300
C4646       C  0.94821849  0.89473873  0.89348789    -0.08200
C4647       C  0.97685874  0.88647514  0.91138183     0.62200
H4648       H  0.93023322  0.84995839  0.89490083     0.12900
H4649       H  0.91477535  0.95298516  0.85369893     0.12900
C4650       C  0.86939640  0.92067832  0.83580240     0.62400
F4651       F  0.97994544  0.90163452  0.94406896    -0.22800
F4652       F  0.99991444  0.89426847  0.88914812    -0.20100
F4653       F  0.97800238  0.85604382  0.91808916    -0.19800
F4654       F  0.85801033  0.94420483  0.85517846    -0.19800
F4655       F  0.84717953  0.90012695  0.82823903    -0.20100
F4656       F  0.87928955  0.93142589  0.80303011    -0.22800
C4657       C  0.90326029  0.54837711  0.84850072    -0.05700
C4658       C  0.91891536  0.54397200  0.88082499     0.00300
C4659       C  0.90518826  0.55281583  0.91375549    -0.08300
C4660       C  0.87939111  0.56987191  0.91207914    -0.05700
C4661       C  0.86644089  0.57872859  0.87913546     0.00300
C4662       C  0.87687452  0.56431171  0.84694934    -0.08200
C4663       C  0.86131737  0.56607341  0.81029951     0.62200
H4664       H  0.91241874  0.53981175  0.82377606     0.12900
H4665       H  0.87087530  0.57858860  0.93691602     0.12900
C4666       C  0.91775745  0.54560729  0.95097017     0.62400
F4667       F  0.87381816  0.54776010  0.78476908    -0.22800
F4668       F  0.86257475  0.59498665  0.79724203    -0.20100
F4669       F  0.83251366  0.55614742  0.81324611    -0.19800
F4670       F  0.94419184  0.56112243  0.95655652    -0.19800
F4671       F  0.92177991  0.51510222  0.95369438    -0.20100
F4672       F  0.89921842  0.55361585  0.97853689    -0.22800
loop_ 
_geom_bond_atom_site_label_1 
_geom_bond_atom_site_label_2 
_geom_bond_distance 
_geom_bond_site_symmetry_2 
_ccdc_geom_bond_type 
O1           C11   1.269       .  A
O1        Cu3513   1.994   1_445  S
O2           C12   1.269       .  A
O2           Cu9   1.969       .  S
O3           C13   1.290       .  A
O3        Cu1177   2.085   1_545  S
O4           C14   1.289       .  A
O4        Cu2345   2.079   1_455  S
O5           C14   1.273       .  A
O5        Cu1178   2.006   1_455  S
O6           C13   1.272       .  A
O6        Cu2346   2.008       .  S
O7           C12   1.289       .  A
O7        Cu3514   2.090       .  S
O8           C11   1.292       .  A
O8          Cu10   2.093   1_455  S
Cu9        O3505   2.002       .  S
Cu9        O1171   2.097       .  S
Cu9        O2340   2.086       .  S
Cu9       Cu3514   2.355       .  S
Cu10       O1173   2.002   1_645  S
Cu10       O2342   1.992       .  S
Cu10       O3511   2.082   1_545  S
Cu10      Cu3513   2.353   1_545  S
C11         C525   1.519       .  S
C12         C557   1.490       .  S
C13         C570   1.525       .  S
C14         C538   1.512       .  S
O15          C25   1.280       .  A
O15       Cu2359   2.036       .  S
O16          C26   1.278       .  A
O16       Cu1191   2.019       .  S
O17          C27   1.275       .  A
O17         Cu23   1.992       .  S
O18          C28   1.277       .  A
O18       Cu3527   2.009       .  S
O19          C28   1.281       .  A
O19       Cu1192   2.037   1_445  S
O20          C27   1.280       .  A
O20       Cu2360   2.031       .  S
O21          C26   1.281       .  A
O21       Cu3528   2.032   1_545  S
O22          C25   1.281       .  A
O22         Cu24   2.035   1_455  S
Cu23       O2351   2.019       .  S
Cu23       O1184   2.023       .  S
Cu23       O3522   1.996       .  S
Cu23      Cu2360   2.356       .  S
Cu24       O1187   2.033   1_655  S
Cu24       O2356   2.033       .  S
Cu24       O3525   2.036       .  S
Cu24      Cu2359   2.356   1_655  S
C25         C458   1.517       .  S
C26         C490   1.510       .  S
C27         C506   1.486       .  S
C28         C474   1.507       .  S
N29          H61   1.036   1_554  S
N29          C33   1.356       .  A
N29         C618   1.364   1_554  A
N30          C37   1.355       .  A
N30          C38   1.361       .  A
N31          H62   1.040       .  S
N31          C35   1.363   1_556  A
N31         C620   1.357       .  A
N32          C39   1.361       .  A
N32          C40   1.358       .  A
C33          C41   1.387       .  A
C33          C49   1.431       .  A
C34         N613   1.366       .  A
C34          C50   1.436       .  A
C34          C42   1.387       .  A
C35          C43   1.388       .  A
C35          C52   1.431       .  A
C36         N615   1.355       .  A
C36          C51   1.421       .  A
C36          C44   1.387       .  A
C37          C49   1.435       .  A
C37          C45   1.390       .  A
C38          C52   1.419       .  A
C38          C46   1.379       .  A
C39          C47   1.390       .  A
C39          C50   1.441       .  A
C40          C48   1.373       .  A
C40          C51   1.412       .  A
C41         C626   1.381   1_554  A
C41          H53   1.083       .  S
C42         C625   1.380       .  A
C42          H54   1.082       .  S
C43         C628   1.380   1_554  A
C43          H55   1.081       .  S
C44         C627   1.378       .  A
C44          H56   1.081       .  S
C45          C46   1.377       .  A
C45          H57   1.077       .  S
C46          H58   1.082       .  S
C47          C48   1.364       .  A
C47          H59   1.071       .  S
C48          H60   1.080       .  S
C49         C230   1.539       .  S
C50         C215   1.559       .  S
C51         C101   1.498       .  S
C52          C92   1.524       .  S
C63          C64   1.538       .  S
C63          C69   1.534       .  S
C63          C67   1.560       .  S
C63         C554   1.558       .  S
C64          H71   1.076       .  S
C64          C65   1.365       .  D
C65         C168   1.501       .  S
C65          C66   1.537       .  S
C66          C70   1.510       .  S
C66          C68   1.564       .  S
C66          H72   1.087       .  S
C67          H73   1.085       .  S
C67          C68   1.388       .  D
C68         C199   1.546       .  S
C69          H74   1.086       .  S
C69          C70   1.356       .  D
C70         C442   1.463       .  S
C75          C76   1.528       .  S
C75          C81   1.505       .  S
C75          C79   1.558       .  S
C75         C509   1.553       .  S
C76          H83   1.069       .  S
C76          C77   1.382       .  D
C77         C200   1.546       .  S
C77          C78   1.587       .  S
C78          C82   1.558       .  S
C78          C80   1.545       .  S
C78          H84   1.091       .  S
C79          H85   1.077       .  S
C79          C80   1.370       .  D
C80         C167   1.518       .  S
C81          H86   1.090       .  S
C81          C82   1.348       .  D
C82         C429   1.500       .  S
C87          C88   1.559       .  S
C87          C93   1.531       .  S
C87          C91   1.537       .  S
C87         C477   1.550       .  S
C88          H95   1.079       .  S
C88          C89   1.383       .  D
C89         C316   1.541       .  S
C89          C90   1.564       .  S
C90          C94   1.551       .  S
C90          C92   1.561       .  S
C90          H96   1.109       .  S
C91          H97   1.086       .  S
C91          C92   1.368       .  D
C93          H98   1.083       .  S
C93          C94   1.345       .  D
C94         C410   1.483       .  S
C99         C100   1.528       .  S
C99         C105   1.528       .  S
C99         C103   1.598       .  S
C99         C522   1.570       .  S
C100        H107   1.077       .  S
C100        C101   1.355       .  D
C101        C102   1.544       .  S
C102        C106   1.525       .  S
C102        C104   1.547       .  S
C102        H108   1.074       .  S
C103        H109   1.080       .  S
C103        C104   1.414       .  D
C104        C315   1.578       .  S
C105        H110   1.083       .  S
C105        C106   1.339       .  D
C106        C394   1.482       .  S
N111        H143   1.040       .  S
N111        C116   1.349       .  A
N111        C699   1.356       .  A
N112        C120   1.330   1_565  A
N112       C1287   1.333       .  A
N113        H144   1.041       .  S
N113        C118   1.355       .  A
N113        C701   1.348       .  A
N114        C122   1.336       .  A
N114       C1289   1.338   1_545  A
C115        N695   1.352       .  A
C115        C123   1.395       .  A
C115        C131   1.424       .  A
C116        C132   1.413   1_556  A
C116        C124   1.385       .  A
C117        N697   1.349       .  A
C117        C125   1.385       .  A
C117        C134   1.406       .  A
C118        C133   1.419   1_556  A
C118        C126   1.388       .  A
C119       N1280   1.334       .  A
C119        C131   1.369       .  A
C119        C127   1.382       .  A
C120        C134   1.375       .  A
C120        C128   1.386       .  A
C121       N1282   1.341       .  A
C121        C129   1.384       .  A
C121        C132   1.403       .  A
C122        C130   1.388       .  A
C122        C133   1.406       .  A
C123        C708   1.370       .  A
C123        H135   1.081       .  S
C124        C707   1.369       .  A
C124        H136   1.083       .  S
C125        C710   1.369       .  A
C125        H137   1.082       .  S
C126        C709   1.369       .  A
C126        H138   1.082   1_556  S
C127       C1296   1.369       .  A
C127        H139   1.081       .  S
C128       C1295   1.370       .  A
C128        H140   1.082       .  S
C129       C1298   1.386       .  A
C129        H141   1.082       .  S
C130       C1297   1.389       .  A
C130        H142   1.082       .  S
C131        C445   1.482       .  S
C132        C426   1.494       .  S
C133        C413   1.480       .  S
C134        C397   1.444       .  S
N145        H177   1.036       .  S
N145        C150   1.359       .  A
N145        C733   1.366   1_554  A
N146        C153   1.355       .  A
N146        C154   1.355       .  A
N147        H178   1.040       .  S
N147        C152   1.357       .  A
N147        C735   1.356   1_554  A
N148        C155   1.359       .  A
N148        C156   1.363       .  A
C149        N729   1.364       .  A
C149        C157   1.384       .  A
C149        C165   1.429       .  A
C150        C166   1.435       .  A
C150        C158   1.384       .  A
C151        N731   1.357       .  A
C151        C159   1.392       .  A
C151        C168   1.427       .  A
C152        C167   1.415       .  A
C152        C160   1.379       .  A
C153        C165   1.427       .  A
C153        C161   1.383       .  A
C154        C168   1.418       .  A
C154        C162   1.383       .  A
C155        C163   1.388       .  A
C155        C166   1.436       .  A
C156        C164   1.379       .  A
C156        C167   1.424       .  A
C157        C742   1.376       .  A
C157        H169   1.080       .  S
C158        C741   1.373   1_554  A
C158        H170   1.079       .  S
C159        C744   1.375       .  A
C159        H171   1.078       .  S
C160        C743   1.371   1_554  A
C160        H172   1.076       .  S
C161        C162   1.365       .  A
C161        H173   1.076       .  S
C162        H174   1.077       .  S
C163        C164   1.378       .  A
C163        H175   1.081       .  S
C164        H176   1.079       .  S
C165        C251   1.549       .  S
C166        C242   1.545       .  S
N179        H211   1.038       .  S
N179        C184   1.360       .  A
N179        C183   1.364       .  A
N180        C187   1.354       .  A
N180        C188   1.353       .  A
N181        H212   1.035       .  S
N181        C186   1.358       .  A
N181        C185   1.361       .  A
N182        C189   1.359       .  A
N182        C190   1.358       .  A
C183        C191   1.376       .  A
C183        C199   1.426       .  A
C184        C200   1.441       .  A
C184        C192   1.391       .  A
C185        C193   1.386       .  A
C185        C202   1.430       .  A
C186        C201   1.427       .  A
C186        C194   1.386       .  A
C187        C199   1.421       .  A
C187        C195   1.380       .  A
C188        C202   1.413       .  A
C188        C196   1.379       .  A
C189        C197   1.382       .  A
C189        C200   1.425       .  A
C190        C198   1.380       .  A
C190        C201   1.424       .  A
C191        C192   1.379       .  A
C191        H203   1.078       .  S
C192        H204   1.080       .  S
C193        C194   1.374       .  A
C193        H205   1.078       .  S
C194        H206   1.079       .  S
C195        C196   1.363       .  A
C195        H207   1.076       .  S
C196        H208   1.075       .  S
C197        C198   1.367       .  A
C197        H209   1.076       .  S
C198        H210   1.075       .  S
C201        C227   1.508       .  S
C202        C218   1.507       .  S
C213        C214   1.578       .  S
C213        C219   1.541       .  S
C213        C217   1.548       .  S
C213        C541   1.579       .  S
C214        H221   1.082       .  S
C214        C215   1.397       .  D
C215        C216   1.554       .  S
C216        C220   1.505       .  S
C216        C218   1.529       .  S
C216        H222   1.077       .  S
C217        H223   1.071       .  S
C217        C218   1.360       .  D
C219        H224   1.087       .  S
C219        C220   1.360       .  D
C220        C378   1.464       .  S
C225        C226   1.546       .  S
C225        C231   1.533       .  S
C225        C229   1.560       .  S
C225        C461   1.571       .  S
C226        H233   1.086       .  S
C226        C227   1.365       .  D
C227        C228   1.544       .  S
C228        C232   1.535       .  S
C228        C230   1.558       .  S
C228        H234   1.094       .  S
C229        H235   1.067       .  S
C229        C230   1.393       .  D
C231        H236   1.088       .  S
C231        C232   1.352       .  D
C232        C365   1.487       .  S
C237        C238   1.549       .  S
C237        C243   1.527       .  S
C237        C241   1.553       .  S
C237        C493   1.557       .  S
C238        H245   1.086       .  S
C238        C239   1.368       .  D
C239        C317   1.511       .  S
C239        C240   1.537       .  S
C240        C244   1.533       .  S
C240        C242   1.562       .  S
C240        H246   1.094       .  S
C241        H247   1.075       .  S
C241        C242   1.396       .  D
C243        H248   1.088       .  S
C243        C244   1.346       .  D
C244        C346   1.470       .  S
C249        C250   1.573       .  S
C249        C255   1.511       .  S
C249        C253   1.546       .  S
C249        C573   1.566       .  S
C250        H257   1.075       .  S
C250        C251   1.401       .  D
C251        C252   1.562       .  S
C252        C256   1.550       .  S
C252        C254   1.550       .  S
C252        H258   1.094       .  S
C253        H259   1.078       .  S
C253        C254   1.365       .  D
C254        C318   1.524       .  S
C255        H260   1.080       .  S
C255        C256   1.336       .  D
C256        C330   1.492       .  S
N261        H293   1.042       .  S
N261        C266   1.345       .  A
N261        C265   1.353       .  A
N262        C269   1.347       .  A
N262       C2606   1.346   1_455  A
N263        H294   1.042       .  S
N263        C268   1.353       .  A
N263        C267   1.353       .  A
N264        C271   1.343   1_655  A
N264       C2608   1.344       .  A
C265        C273   1.386       .  A
C265        C281   1.421       .  A
C266        C282   1.410       .  A
C266        C274   1.384       .  A
C267        C275   1.389       .  A
C267        C284   1.411       .  A
C268        C283   1.415       .  A
C268        C276   1.384       .  A
C269        C281   1.409       .  A
C269        C277   1.393       .  A
C270       N2598   1.347       .  A
C270        C284   1.392       .  A
C270        C278   1.379       .  A
C271        C279   1.390       .  A
C271        C282   1.405       .  A
C272       N2600   1.343       .  A
C272        C280   1.380       .  A
C272        C283   1.388       .  A
C273        C274   1.386       .  A
C273        H285   1.078       .  S
C274        H286   1.080       .  S
C275        C276   1.373       .  A
C275        H287   1.083       .  S
C276        H288   1.082       .  S
C277       C2614   1.371   1_455  A
C277        H289   1.082       .  S
C278       C2613   1.375       .  A
C278        H290   1.082       .  S
C279       C2616   1.375   1_455  A
C279        H291   1.082       .  S
C280       C2615   1.375       .  A
C280        H292   1.081       .  S
C281        C381   1.516       .  S
C282        C362   1.484       .  S
C283        C349   1.478       .  S
C284        C333   1.476       .  S
N295        H327   1.041       .  S
N295        C300   1.364       .  A
N295        C299   1.364       .  A
N296        C303   1.371       .  A
N296        C304   1.373       .  A
N297        H328   1.042       .  S
N297        C302   1.355       .  A
N297        C301   1.350       .  A
N298        C305   1.356       .  A
N298        C306   1.364       .  A
C299        C307   1.389       .  A
C299        C315   1.439       .  A
C300        C316   1.433       .  A
C300        C308   1.386       .  A
C301        C309   1.384       .  A
C301        C318   1.405       .  A
C302        C317   1.410       .  A
C302        C310   1.380       .  A
C303        C315   1.468       .  A
C303        C311   1.391       .  A
C304        C318   1.435       .  A
C304        C312   1.371       .  A
C305        C313   1.377       .  A
C305        C316   1.429       .  A
C306        C314   1.374       .  A
C306        C317   1.410       .  A
C307        C308   1.383       .  A
C307        H319   1.082       .  S
C308        H320   1.082       .  S
C309        C310   1.374       .  A
C309        H321   1.081       .  S
C310        H322   1.072       .  S
C311        C312   1.374       .  A
C311        H323   1.074       .  S
C312        H324   1.080       .  S
C313        C314   1.368       .  A
C313        H325   1.053       .  S
C314        H326   1.082       .  S
C329        C330   1.405       .  A
C329        C334   1.399       .  A
C329        H336   1.076       .  S
C330        C331   1.430       .  A
C331        C332   1.402       .  A
C331        C338   1.525       .  S
C332        C333   1.397       .  A
C332        H337   1.084       .  S
C333        C334   1.402       .  A
C334        C335   1.509       .  S
C335        F339   1.373       .  S
C335        F340   1.383       .  S
C335        F341   1.382       .  S
C338        F342   1.380       .  S
C338        F343   1.383       .  S
C338        F344   1.385       .  S
C345        C346   1.395       .  A
C345        C350   1.400       .  A
C345        H352   1.083       .  S
C346        C347   1.415       .  A
C347        C348   1.396       .  A
C347        C354   1.512       .  S
C348        C349   1.400       .  A
C348        H353   1.086       .  S
C349        C350   1.406       .  A
C350        C351   1.495       .  S
C351        F355   1.378       .  S
C351        F356   1.383       .  S
C351        F357   1.381       .  S
C354        F358   1.383       .  S
C354        F359   1.377       .  S
C354        F360   1.377       .  S
C361        C362   1.397       .  A
C361        C366   1.406       .  A
C361        H368   1.085       .  S
C362        C363   1.424       .  A
C363        C364   1.404       .  A
C363        C370   1.524       .  S
C364        C365   1.401       .  A
C364        H369   1.083       .  S
C365        C366   1.422       .  A
C366        C367   1.511       .  S
C367        F371   1.384       .  S
C367        F372   1.379       .  S
C367        F373   1.373       .  S
C370        F374   1.370       .  S
C370        F375   1.381       .  S
C370        F376   1.384       .  S
C377        C378   1.400       .  A
C377        C382   1.397       .  A
C377        H384   1.085       .  S
C378        C379   1.407       .  A
C379        C380   1.397       .  A
C379        C386   1.525       .  S
C380        C381   1.417       .  A
C380        H385   1.064       .  S
C381        C382   1.421       .  A
C382        C383   1.515       .  S
C383        F387   1.383       .  S
C383        F388   1.379       .  S
C383        F389   1.383       .  S
C386        F390   1.379       .  S
C386        F391   1.378       .  S
C386        F392   1.385       .  S
C393        C394   1.405       .  A
C393        C398   1.390       .  A
C393        H400   1.080       .  S
C394        C395   1.443       .  A
C395        C396   1.388       .  A
C395        C402   1.522       .  S
C396        C397   1.378       .  A
C396        H401   1.085       .  S
C397        C398   1.401       .  A
C398        C399   1.516       .  S
C399        F403   1.374       .  S
C399        F404   1.376       .  S
C399        F405   1.382       .  S
C402        F406   1.387       .  S
C402        F407   1.372       .  S
C402        F408   1.379       .  S
C409        C410   1.389       .  A
C409        C414   1.392       .  A
C409        H416   1.085       .  S
C410        C411   1.434       .  A
C411        C412   1.406       .  A
C411        C418   1.522       .  S
C412        C413   1.395       .  A
C412        H417   1.084       .  S
C413        C414   1.416       .  A
C414        C415   1.501       .  S
C415        F419   1.383       .  S
C415        F420   1.378   1_554  S
C415        F421   1.382       .  S
C418        F422   1.381       .  S
C418        F423   1.383       .  S
C418        F424   1.386       .  S
C425        C426   1.416       .  A
C425        C430   1.411       .  A
C425        H432   1.082       .  S
C426        C427   1.411       .  A
C427        C428   1.398       .  A
C427        C434   1.525       .  S
C428        C429   1.415       .  A
C428        H433   1.080       .  S
C429        C430   1.411       .  A
C430        C431   1.514       .  S
C431        F435   1.385       .  S
C431        F436   1.383       .  S
C431        F437   1.380       .  S
C434        F438   1.384       .  S
C434        F439   1.380   1_554  S
C434        F440   1.385       .  S
C441        C442   1.398       .  A
C441        C446   1.387       .  A
C441        H448   1.073       .  S
C442        C443   1.403       .  A
C443        C444   1.403       .  A
C443        C450   1.511       .  S
C444        C445   1.409       .  A
C444        H449   1.083       .  S
C445        C446   1.415       .  A
C446        C447   1.520       .  S
C447        F451   1.385       .  S
C447        F452   1.380       .  S
C447        F453   1.383       .  S
C450        F454   1.383       .  S
C450        F455   1.384       .  S
C450        F456   1.384       .  S
C457        C458   1.412       .  A
C457        C462   1.423       .  A
C457        H464   1.082       .  S
C458        C459   1.422       .  A
C459        C460   1.410       .  A
C459        C466   1.522       .  S
C460        C461   1.418       .  A
C460        H465   1.081       .  S
C461        C462   1.431       .  A
C462        C463   1.514       .  S
C463        F467   1.385       .  S
C463        F468   1.382       .  S
C463        F469   1.383       .  S
C466        F470   1.383       .  S
C466        F471   1.384       .  S
C466        F472   1.385       .  S
C473        C474   1.415       .  A
C473        C478   1.411       .  A
C473        H480   1.084       .  S
C474        C475   1.425       .  A
C475        C476   1.411       .  A
C475        C482   1.520       .  S
C476        C477   1.413       .  A
C476        H481   1.083       .  S
C477        C478   1.414       .  A
C478        C479   1.512       .  S
C479        F483   1.385       .  S
C479        F484   1.382       .  S
C479        F485   1.383       .  S
C482        F486   1.383       .  S
C482        F487   1.383       .  S
C482        F488   1.385       .  S
C489        C490   1.414       .  A
C489        C494   1.416       .  A
C489        H496   1.084       .  S
C490        C491   1.426       .  A
C491        C492   1.409       .  A
C491        C498   1.525       .  S
C492        C493   1.413       .  A
C492        H497   1.081       .  S
C493        C494   1.420       .  A
C494        C495   1.513       .  S
C495        F499   1.385       .  S
C495        F500   1.382       .  S
C495        F501   1.383       .  S
C498        F502   1.384       .  S
C498        F503   1.383       .  S
C498        F504   1.385       .  S
C505        C506   1.397       .  A
C505        C510   1.406       .  A
C505        H512   1.082       .  S
C506        C507   1.412       .  A
C507        C508   1.412       .  A
C507        C514   1.519       .  S
C508        C509   1.418       .  A
C508        H513   1.073       .  S
C509        C510   1.439       .  A
C510        C511   1.527       .  S
C511        F515   1.382       .  S
C511        F516   1.381       .  S
C511        F517   1.385       .  S
C514        F518   1.384       .  S
C514        F519   1.382       .  S
C514        F520   1.385       .  S
C521        C522   1.412       .  A
C521        C526   1.422       .  A
C521        H528   1.078       .  S
C522        C523   1.444       .  A
C523        C524   1.417       .  A
C523        C530   1.517       .  S
C524        C525   1.396       .  A
C524        H529   1.083       .  S
C525        C526   1.431       .  A
C526        C527   1.522       .  S
C527        F531   1.385       .  S
C527        F532   1.383       .  S
C527        F533   1.384       .  S
C530        F534   1.380       .  S
C530        F535   1.379       .  S
C530        F536   1.386       .  S
C537        C538   1.395       .  A
C537        C542   1.420       .  A
C537        H544   1.083       .  S
C538        C539   1.424       .  A
C539        C540   1.416       .  A
C539        C546   1.518       .  S
C540        C541   1.416       .  A
C540        H545   1.079       .  S
C541        C542   1.448       .  A
C542        C543   1.520       .  S
C543        F547   1.386       .  S
C543        F548   1.376       .  S
C543        F549   1.384       .  S
C546        F550   1.385       .  S
C546        F551   1.375       .  S
C546        F552   1.383       .  S
C553        C554   1.418       .  A
C553        C558   1.418       .  A
C553        H560   1.077       .  S
C554        C555   1.437       .  A
C555        C556   1.404       .  A
C555        C562   1.522       .  S
C556        C557   1.397       .  A
C556        H561   1.086       .  S
C557        C558   1.414       .  A
C558        C559   1.511       .  S
C559        F563   1.381       .  S
C559        F564   1.384       .  S
C559        F565   1.384       .  S
C562        F566   1.383       .  S
C562        F567   1.373       .  S
C562        F568   1.384       .  S
C569        C570   1.402       .  A
C569        C574   1.418       .  A
C569        H576   1.082       .  S
C570        C571   1.434       .  A
C571        C572   1.421       .  A
C571        C578   1.521       .  S
C572        C573   1.409       .  A
C572        H577   1.077       .  S
C573        C574   1.443       .  A
C574        C575   1.526       .  S
C575        F579   1.384       .  S
C575        F580   1.381       .  S
C575        F581   1.381       .  S
C578        F582   1.383       .  S
C578        F583   1.384       .  S
C578        F584   1.384       .  S
O585        C595   1.272       .  A
O585      Cu4097   2.009   1_445  S
O586        C596   1.270       .  A
O586       Cu593   1.972       .  S
O587        C597   1.290       .  A
O587      Cu1761   2.079   1_545  S
O588        C598   1.289       .  A
O588      Cu2929   2.086   1_455  S
O589        C598   1.273       .  A
O589      Cu1762   2.006       .  S
O590        C597   1.272       .  A
O590      Cu2930   2.006       .  S
O591        C596   1.289       .  A
O591      Cu4098   2.087       .  S
O592        C595   1.291       .  A
O592       Cu594   2.091   1_455  S
Cu593      O4089   2.000       .  S
Cu593      O1755   2.088       .  S
Cu593      O2924   2.090       .  S
Cu593     Cu4098   2.354       .  S
Cu594      O1757   2.010   1_645  S
Cu594      O2926   2.010       .  S
Cu594      O4095   2.085   1_545  S
Cu594     Cu4097   2.356   1_545  S
C595       C1109   1.520       .  S
C596       C1141   1.492       .  S
C597       C1154   1.521       .  S
C598       C1122   1.510       .  S
O599        C609   1.280       .  A
O599      Cu2943   2.033       .  S
O600        C610   1.279       .  A
O600      Cu1775   2.028       .  S
O601        C611   1.276       .  A
O601       Cu607   1.998       .  S
O602        C612   1.277       .  A
O602      Cu4111   2.004       .  S
O603        C612   1.280       .  A
O603      Cu1776   2.035   1_445  S
O604        C611   1.280       .  A
O604      Cu2944   2.032       .  S
O605        C610   1.279       .  A
O605      Cu4112   2.030   1_545  S
O606        C609   1.280       .  A
O606       Cu608   2.028   1_455  S
Cu607      O2935   2.027       .  S
Cu607      O1768   2.018       .  S
Cu607      O4106   2.012       .  S
Cu607     Cu2944   2.356       .  S
Cu608      O1771   2.043   1_655  S
Cu608      O2940   2.042       .  S
Cu608      O4109   2.033       .  S
Cu608     Cu2943   2.356   1_655  S
C609       C1042   1.515       .  S
C610       C1074   1.511       .  S
C611       C1090   1.485       .  S
C612       C1058   1.503       .  S
N613        H645   1.037       .  S
N613        C617   1.358       .  A
N614        C621   1.353       .  A
N614        C622   1.359       .  A
N615        H646   1.039       .  S
N615        C619   1.361       .  A
N616        C623   1.361       .  A
N616        C624   1.359       .  A
C617        C625   1.387       .  A
C617        C633   1.433       .  A
C618        C634   1.433       .  A
C618        C626   1.387       .  A
C619        C627   1.387       .  A
C619        C636   1.426       .  A
C620        C635   1.425       .  A
C620        C628   1.388       .  A
C621        C633   1.433       .  A
C621        C629   1.391       .  A
C622        C636   1.416       .  A
C622        C630   1.379       .  A
C623        C631   1.389       .  A
C623        C634   1.442       .  A
C624        C632   1.375       .  A
C624        C635   1.415       .  A
C625        H637   1.083       .  S
C626        H638   1.082       .  S
C627        H639   1.081       .  S
C628        H640   1.082       .  S
C629        C630   1.376       .  A
C629        H641   1.076       .  S
C630        H642   1.082       .  S
C631        C632   1.365       .  A
C631        H643   1.071       .  S
C632        H644   1.079       .  S
C633        C814   1.540       .  S
C634        C799   1.556       .  S
C635        C685   1.503       .  S
C636        C676   1.515       .  S
C647        C648   1.539       .  S
C647        C653   1.533       .  S
C647        C651   1.560       .  S
C647       C1138   1.557       .  S
C648        H655   1.078       .  S
C648        C649   1.364       .  D
C649        C752   1.502       .  S
C649        C650   1.535       .  S
C650        C654   1.513       .  S
C650        C652   1.569       .  S
C650        H656   1.086       .  S
C651        H657   1.084       .  S
C651        C652   1.386       .  D
C652        C783   1.551       .  S
C653        H658   1.087       .  S
C653        C654   1.358       .  D
C654       C1026   1.466       .  S
C659        C660   1.525       .  S
C659        C665   1.505       .  S
C659        C663   1.559       .  S
C659       C1093   1.555       .  S
C660        H667   1.067       .  S
C660        C661   1.380       .  D
C661        C784   1.553       .  S
C661        C662   1.591       .  S
C662        C666   1.556       .  S
C662        C664   1.547       .  S
C662        H668   1.092       .  S
C663        H669   1.077       .  S
C663        C664   1.374       .  D
C664        C751   1.522       .  S
C665        H670   1.090       .  S
C665        C666   1.351       .  D
C666       C1013   1.497       .  S
C671        C672   1.554       .  S
C671        C677   1.530       .  S
C671        C675   1.538       .  S
C671       C1061   1.545       .  S
C672        H679   1.075       .  S
C672        C673   1.378       .  D
C673        C900   1.533       .  S
C673        C674   1.558       .  S
C674        C678   1.551       .  S
C674        C676   1.553       .  S
C674        H680   1.108       .  S
C675        H681   1.086       .  S
C675        C676   1.369       .  D
C677        H682   1.084       .  S
C677        C678   1.347       .  D
C678        C994   1.479       .  S
C683        C684   1.536       .  S
C683        C689   1.532       .  S
C683        C687   1.590       .  S
C683       C1106   1.573       .  S
C684        H691   1.073       .  S
C684        C685   1.357       .  D
C685        C686   1.542       .  S
C686        C690   1.522       .  S
C686        C688   1.546       .  S
C686        H692   1.076       .  S
C687        H693   1.082       .  S
C687        C688   1.412       .  D
C688        C899   1.573       .  S
C689        H694   1.083       .  S
C689        C690   1.344       .  D
C690        C978   1.483       .  S
N695        H727   1.039       .  S
N695        C700   1.347       .  A
N696       C1871   1.335       .  A
N696        C704   1.333   1_565  A
N697        H728   1.040       .  S
N697        C702   1.355       .  A
N698       C1873   1.341   1_545  A
N698        C706   1.338       .  A
C699        C707   1.395       .  A
C699        C715   1.429       .  A
C700        C716   1.411       .  A
C700        C708   1.385       .  A
C701        C709   1.386       .  A
C701        C718   1.405       .  A
C702        C717   1.421       .  A
C702        C710   1.389       .  A
C703       N1864   1.333       .  A
C703        C715   1.372       .  A
C703        C711   1.381       .  A
C704        C718   1.380       .  A
C704        C712   1.386       .  A
C705       N1866   1.340       .  A
C705        C713   1.384       .  A
C705        C716   1.406       .  A
C706        C714   1.389       .  A
C706        C717   1.410       .  A
C707        H719   1.081       .  S
C708        H720   1.083       .  S
C709        H721   1.082       .  S
C710        H722   1.082       .  S
C711       C1880   1.374       .  A
C711        H723   1.081       .  S
C712       C1879   1.374       .  A
C712        H724   1.082       .  S
C713       C1882   1.390       .  A
C713        H725   1.082       .  S
C714       C1881   1.390       .  A
C714        H726   1.082       .  S
C715       C1029   1.488       .  S
C716       C1010   1.493       .  S
C717        C997   1.484       .  S
C718        C981   1.449       .  S
N729        H761   1.038       .  S
N729        C734   1.356       .  A
N730        C737   1.356       .  A
N730        C738   1.356       .  A
N731        H762   1.041       .  S
N731        C736   1.358       .  A
N732        C739   1.358       .  A
N732        C740   1.363       .  A
C733        C741   1.384       .  A
C733        C749   1.433       .  A
C734        C750   1.430       .  A
C734        C742   1.386       .  A
C735        C743   1.392       .  A
C735        C752   1.425       .  A
C736        C751   1.418       .  A
C736        C744   1.381       .  A
C737        C749   1.432       .  A
C737        C745   1.385       .  A
C738        C752   1.418       .  A
C738        C746   1.380       .  A
C739        C747   1.388       .  A
C739        C750   1.435       .  A
C740        C748   1.381       .  A
C740        C751   1.426       .  A
C741        H753   1.079       .  S
C742        H754   1.082       .  S
C743        H755   1.078       .  S
C744        H756   1.077       .  S
C745        C746   1.366       .  A
C745        H757   1.075       .  S
C746        H758   1.077       .  S
C747        C748   1.379       .  A
C747        H759   1.081       .  S
C748        H760   1.079       .  S
C749        C835   1.553       .  S
C750        C826   1.540       .  S
N763        H795   1.036       .  S
N763        C768   1.362       .  A
N763        C767   1.367       .  A
N764        C771   1.353       .  A
N764        C772   1.352       .  A
N765        H796   1.037       .  S
N765        C770   1.356       .  A
N765        C769   1.362       .  A
N766        C773   1.361       .  A
N766        C774   1.360       .  A
C767        C775   1.375       .  A
C767        C783   1.431       .  A
C768        C784   1.449       .  A
C768        C776   1.392       .  A
C769        C777   1.387       .  A
C769        C786   1.428       .  A
C770        C785   1.426       .  A
C770        C778   1.387       .  A
C771        C783   1.419       .  A
C771        C779   1.377       .  A
C772        C786   1.413       .  A
C772        C780   1.378       .  A
C773        C781   1.383       .  A
C773        C784   1.431       .  A
C774        C782   1.380       .  A
C774        C785   1.427       .  A
C775        C776   1.380       .  A
C775        H787   1.078       .  S
C776        H788   1.079       .  S
C777        C778   1.374       .  A
C777        H789   1.080       .  S
C778        H790   1.079       .  S
C779        C780   1.360       .  A
C779        H791   1.076       .  S
C780        H792   1.074       .  S
C781        C782   1.370       .  A
C781        H793   1.075       .  S
C782        H794   1.076       .  S
C785        C811   1.509       .  S
C786        C802   1.506       .  S
C797        C798   1.572       .  S
C797        C803   1.540       .  S
C797        C801   1.547       .  S
C797       C1125   1.568       .  S
C798        H805   1.083       .  S
C798        C799   1.397       .  D
C799        C800   1.551       .  S
C800        C804   1.505       .  S
C800        C802   1.533       .  S
C800        H806   1.082       .  S
C801        H807   1.070       .  S
C801        C802   1.360       .  D
C803        H808   1.087       .  S
C803        C804   1.355       .  D
C804        C962   1.458       .  S
C809        C810   1.545       .  S
C809        C815   1.531       .  S
C809        C813   1.558       .  S
C809       C1045   1.569       .  S
C810        H817   1.086       .  S
C810        C811   1.366       .  D
C811        C812   1.546       .  S
C812        C816   1.539       .  S
C812        C814   1.560       .  S
C812        H818   1.094       .  S
C813        H819   1.065       .  S
C813        C814   1.391       .  D
C815        H820   1.088       .  S
C815        C816   1.351       .  D
C816        C949   1.490       .  S
C821        C822   1.545       .  S
C821        C827   1.531       .  S
C821        C825   1.552       .  S
C821       C1077   1.555       .  S
C822        H829   1.086       .  S
C822        C823   1.364       .  D
C823        C901   1.503       .  S
C823        C824   1.536       .  S
C824        C828   1.535       .  S
C824        C826   1.559       .  S
C824        H830   1.096       .  S
C825        H831   1.072       .  S
C825        C826   1.394       .  D
C827        H832   1.088       .  S
C827        C828   1.347       .  D
C828        C930   1.475       .  S
C833        C834   1.571       .  S
C833        C839   1.511       .  S
C833        C837   1.541       .  S
C833       C1157   1.565       .  S
C834        H841   1.073       .  S
C834        C835   1.402       .  D
C835        C836   1.562       .  S
C836        C840   1.552       .  S
C836        C838   1.548       .  S
C836        H842   1.093       .  S
C837        H843   1.078       .  S
C837        C838   1.362       .  D
C838        C902   1.518       .  S
C839        H844   1.077       .  S
C839        C840   1.340       .  D
C840        C914   1.497       .  S
N845        H877   1.042       .  S
N845        C850   1.346       .  A
N845        C849   1.352       .  A
N846        C853   1.347       .  A
N846       C3190   1.347   1_455  A
N847        H878   1.043       .  S
N847        C852   1.354       .  A
N847        C851   1.351       .  A
N848        C855   1.342   1_655  A
N848       C3192   1.343       .  A
C849        C857   1.388       .  A
C849        C865   1.421       .  A
C850        C866   1.412       .  A
C850        C858   1.384       .  A
C851        C859   1.388       .  A
C851        C868   1.409       .  A
C852        C867   1.412       .  A
C852        C860   1.383       .  A
C853        C865   1.409       .  A
C853        C861   1.392       .  A
C854       N3182   1.346       .  A
C854        C868   1.394       .  A
C854        C862   1.380       .  A
C855        C863   1.389       .  A
C855        C866   1.403       .  A
C856       N3184   1.344       .  A
C856        C864   1.378       .  A
C856        C867   1.385       .  A
C857        C858   1.386       .  A
C857        H869   1.080       .  S
C858        H870   1.080       .  S
C859        C860   1.372       .  A
C859        H871   1.083       .  S
C860        H872   1.082       .  S
C861       C3198   1.372   1_455  A
C861        H873   1.082       .  S
C862       C3197   1.376       .  A
C862        H874   1.083       .  S
C863       C3200   1.374   1_455  A
C863        H875   1.082       .  S
C864       C3199   1.374       .  A
C864        H876   1.082       .  S
C865        C965   1.510       .  S
C866        C946   1.485       .  S
C867        C933   1.478       .  S
C868        C917   1.478       .  S
N879        H911   1.041       .  S
N879        C884   1.362       .  A
N879        C883   1.364       .  A
N880        C887   1.369       .  A
N880        C888   1.371       .  A
N881        H912   1.041       .  S
N881        C886   1.355       .  A
N881        C885   1.349       .  A
N882        C889   1.355       .  A
N882        C890   1.361       .  A
C883        C891   1.388       .  A
C883        C899   1.434       .  A
C884        C900   1.432       .  A
C884        C892   1.387       .  A
C885        C893   1.384       .  A
C885        C902   1.404       .  A
C886        C901   1.407       .  A
C886        C894   1.378       .  A
C887        C899   1.463       .  A
C887        C895   1.390       .  A
C888        C902   1.434       .  A
C888        C896   1.370       .  A
C889        C897   1.381       .  A
C889        C900   1.428       .  A
C890        C898   1.373       .  A
C890        C901   1.405       .  A
C891        C892   1.380       .  A
C891        H903   1.082       .  S
C892        H904   1.082       .  S
C893        C894   1.370       .  A
C893        H905   1.080       .  S
C894        H906   1.071       .  S
C895        C896   1.372       .  A
C895        H907   1.074       .  S
C896        H908   1.078       .  S
C897        C898   1.363       .  A
C897        H909   1.050       .  S
C898        H910   1.083       .  S
C913        C914   1.405       .  A
C913        C918   1.399       .  A
C913        H920   1.076       .  S
C914        C915   1.433       .  A
C915        C916   1.405       .  A
C915        C922   1.525       .  S
C916        C917   1.396       .  A
C916        H921   1.083       .  S
C917        C918   1.399       .  A
C918        C919   1.505       .  S
C919        F923   1.374       .  S
C919        F924   1.383       .  S
C919        F925   1.380       .  S
C922        F926   1.381       .  S
C922        F927   1.383       .  S
C922        F928   1.385       .  S
C929        C930   1.396       .  A
C929        C934   1.399       .  A
C929        H936   1.081       .  S
C930        C931   1.419       .  A
C931        C932   1.398       .  A
C931        C938   1.513       .  S
C932        C933   1.399       .  A
C932        H937   1.086       .  S
C933        C934   1.405       .  A
C934        C935   1.494       .  S
C935        F939   1.378       .  S
C935        F940   1.383       .  S
C935        F941   1.381       .  S
C938        F942   1.383       .  S
C938        F943   1.376       .  S
C938        F944   1.377       .  S
C945        C946   1.396       .  A
C945        C950   1.406       .  A
C945        H952   1.085       .  S
C946        C947   1.424       .  A
C947        C948   1.405       .  A
C947        C954   1.524       .  S
C948        C949   1.402       .  A
C948        H953   1.084       .  S
C949        C950   1.423       .  A
C950        C951   1.510       .  S
C951        F955   1.384       .  S
C951        F956   1.377       .  S
C951        F957   1.373       .  S
C954        F958   1.371       .  S
C954        F959   1.381       .  S
C954        F960   1.384       .  S
C961        C962   1.400       .  A
C961        C966   1.398       .  A
C961        H968   1.085       .  S
C962        C963   1.400       .  A
C963        C964   1.392       .  A
C963        C970   1.523       .  S
C964        C965   1.417       .  A
C964        H969   1.065       .  S
C965        C966   1.423       .  A
C966        C967   1.518       .  S
C967        F971   1.383       .  S
C967        F972   1.379       .  S
C967        F973   1.384       .  S
C970        F974   1.379       .  S
C970        F975   1.380       .  S
C970        F976   1.384       .  S
C977        C978   1.406       .  A
C977        C982   1.392       .  A
C977        H984   1.081       .  S
C978        C979   1.441       .  A
C979        C980   1.391       .  A
C979        C986   1.522       .  S
C980        C981   1.380       .  A
C980        H985   1.085       .  S
C981        C982   1.401       .  A
C982        C983   1.513       .  S
C983        F987   1.372       .  S
C983        F988   1.376       .  S
C983        F989   1.382       .  S
C986        F990   1.386       .  S
C986        F991   1.374       .  S
C986        F992   1.376       .  S
C993        C994   1.389       .  A
C993        C998   1.393       .  A
C993       H1000   1.086       .  S
C994        C995   1.432       .  A
C995        C996   1.408       .  A
C995       C1002   1.523       .  S
C996        C997   1.397       .  A
C996       H1001   1.083       .  S
C997        C998   1.419       .  A
C998        C999   1.505       .  S
C999       F1003   1.383       .  S
C999       F1004   1.379       .  S
C999       F1005   1.381       .  S
C1002      F1006   1.380       .  S
C1002      F1007   1.382       .  S
C1002      F1008   1.385       .  S
C1009      C1010   1.414       .  A
C1009      C1014   1.410       .  A
C1009      H1016   1.082       .  S
C1010      C1011   1.415       .  A
C1011      C1012   1.401       .  A
C1011      C1018   1.527       .  S
C1012      C1013   1.413       .  A
C1012      H1017   1.079       .  S
C1013      C1014   1.408       .  A
C1014      C1015   1.512       .  S
C1015      F1019   1.384       .  S
C1015      F1020   1.382       .  S
C1015      F1021   1.382       .  S
C1018      F1022   1.384       .  S
C1018      F1023   1.380       .  S
C1018      F1024   1.385       .  S
C1025      C1026   1.397       .  A
C1025      C1030   1.393       .  A
C1025      H1032   1.073       .  S
C1026      C1027   1.403       .  A
C1027      C1028   1.398       .  A
C1027      C1034   1.508       .  S
C1028      C1029   1.407       .  A
C1028      H1033   1.083       .  S
C1029      C1030   1.422       .  A
C1030      C1031   1.522       .  S
C1031      F1035   1.386       .  S
C1031      F1036   1.380       .  S
C1031      F1037   1.383       .  S
C1034      F1038   1.382       .  S
C1034      F1039   1.384       .  S
C1034      F1040   1.383       .  S
C1041      C1042   1.411       .  A
C1041      C1046   1.421       .  A
C1041      H1048   1.082       .  S
C1042      C1043   1.421       .  A
C1043      C1044   1.410       .  A
C1043      C1050   1.522       .  S
C1044      C1045   1.419       .  A
C1044      H1049   1.080       .  S
C1045      C1046   1.431       .  A
C1046      C1047   1.515       .  S
C1047      F1051   1.385       .  S
C1047      F1052   1.382       .  S
C1047      F1053   1.383       .  S
C1050      F1054   1.383       .  S
C1050      F1055   1.384       .  S
C1050      F1056   1.385       .  S
C1057      C1058   1.412       .  A
C1057      C1062   1.407       .  A
C1057      H1064   1.084       .  S
C1058      C1059   1.425       .  A
C1059      C1060   1.410       .  A
C1059      C1066   1.518       .  S
C1060      C1061   1.411       .  A
C1060      H1065   1.083       .  S
C1061      C1062   1.414       .  A
C1062      C1063   1.511       .  S
C1063      F1067   1.384       .  S
C1063      F1068   1.382       .  S
C1063      F1069   1.383       .  S
C1066      F1070   1.384       .  S
C1066      F1071   1.383       .  S
C1066      F1072   1.385       .  S
C1073      C1074   1.416       .  A
C1073      C1078   1.419       .  A
C1073      H1080   1.083       .  S
C1074      C1075   1.425       .  A
C1075      C1076   1.406       .  A
C1075      C1082   1.524       .  S
C1076      C1077   1.412       .  A
C1076      H1081   1.080       .  S
C1077      C1078   1.421       .  A
C1078      C1079   1.515       .  S
C1079      F1083   1.385       .  S
C1079      F1084   1.382       .  S
C1079      F1085   1.384       .  S
C1082      F1086   1.384       .  S
C1082      F1087   1.383       .  S
C1082      F1088   1.385       .  S
C1089      C1090   1.396       .  A
C1089      C1094   1.407       .  A
C1089      H1096   1.083       .  S
C1090      C1091   1.411       .  A
C1091      C1092   1.412       .  A
C1091      C1098   1.517       .  S
C1092      C1093   1.417       .  A
C1092      H1097   1.074       .  S
C1093      C1094   1.441       .  A
C1094      C1095   1.529       .  S
C1095      F1099   1.383       .  S
C1095      F1100   1.381       .  S
C1095      F1101   1.385       .  S
C1098      F1102   1.384       .  S
C1098      F1103   1.382       .  S
C1098      F1104   1.385       .  S
C1105      C1106   1.413       .  A
C1105      C1110   1.424       .  A
C1105      H1112   1.079       .  S
C1106      C1107   1.436       .  A
C1107      C1108   1.417       .  A
C1107      C1114   1.512       .  S
C1108      C1109   1.399       .  A
C1108      H1113   1.084       .  S
C1109      C1110   1.431       .  A
C1110      C1111   1.521       .  S
C1111      F1115   1.385       .  S
C1111      F1116   1.383       .  S
C1111      F1117   1.384       .  S
C1114      F1118   1.380       .  S
C1114      F1119   1.382       .  S
C1114      F1120   1.386       .  S
C1121      C1122   1.405       .  A
C1121      C1126   1.421       .  A
C1121      H1128   1.084       .  S
C1122      C1123   1.432       .  A
C1123      C1124   1.412       .  A
C1123      C1130   1.521       .  S
C1124      C1125   1.408       .  A
C1124      H1129   1.084       .  S
C1125      C1126   1.434       .  A
C1126      C1127   1.517       .  S
C1127      F1131   1.386       .  S
C1127      F1132   1.383       .  S
C1127      F1133   1.385       .  S
C1130      F1134   1.384       .  S
C1130      F1135   1.371       .  S
C1130      F1136   1.382       .  S
C1137      C1138   1.420       .  A
C1137      C1142   1.417       .  A
C1137      H1144   1.075       .  S
C1138      C1139   1.438       .  A
C1139      C1140   1.406       .  A
C1139      C1146   1.525       .  S
C1140      C1141   1.398       .  A
C1140      H1145   1.086       .  S
C1141      C1142   1.411       .  A
C1142      C1143   1.511       .  S
C1143      F1147   1.382       .  S
C1143      F1148   1.383       .  S
C1143      F1149   1.385       .  S
C1146      F1150   1.384       .  S
C1146      F1151   1.372       .  S
C1146      F1152   1.383       .  S
C1153      C1154   1.400       .  A
C1153      C1158   1.415       .  A
C1153      H1160   1.081       .  S
C1154      C1155   1.433       .  A
C1155      C1156   1.421       .  A
C1155      C1162   1.521       .  S
C1156      C1157   1.410       .  A
C1156      H1161   1.076       .  S
C1157      C1158   1.443       .  A
C1158      C1159   1.527       .  S
C1159      F1163   1.384       .  S
C1159      F1164   1.380       .  S
C1159      F1165   1.379       .  S
C1162      F1166   1.383       .  S
C1162      F1167   1.384       .  S
C1162      F1168   1.385       .  S
O1169      C1179   1.272       .  A
O1169     Cu2345   2.007   1_455  S
O1170      C1180   1.270       .  A
O1170     Cu1177   1.972       .  S
O1171      C1181   1.293       .  A
O1172      C1182   1.292       .  A
O1172     Cu3513   2.097   1_455  S
O1173      C1182   1.271       .  A
O1174      C1181   1.271       .  A
O1174     Cu3514   2.004       .  S
O1175      C1180   1.288       .  A
O1175     Cu2346   2.085   1_565  S
O1176      C1179   1.291       .  A
O1176     Cu1178   2.091   1_455  S
Cu1177     O2337   2.001   1_565  S
Cu1177     O3508   2.086       .  S
Cu1177    Cu2346   2.354   1_565  S
Cu1178     O3510   2.001       .  S
Cu1178     O2343   2.082       .  S
Cu1178    Cu2345   2.355       .  S
C1179      C1693   1.520       .  S
C1180      C1725   1.490       .  S
C1181      C1738   1.529       .  S
C1182      C1706   1.517       .  S
O1183      C1193   1.279       .  A
O1183     Cu3527   2.023   1_565  S
O1184      C1194   1.279       .  A
O1185      C1195   1.278       .  A
O1185     Cu1191   2.013   1_565  S
O1186      C1196   1.276       .  A
O1186     Cu2359   2.004       .  S
O1187      C1196   1.280       .  A
O1188      C1195   1.280       .  A
O1188     Cu3528   2.032       .  S
O1189      C1194   1.281       .  A
O1189     Cu2360   2.041       .  S
O1190      C1193   1.281       .  A
O1190     Cu1192   2.038   1_455  S
Cu1191     O3519   2.024   1_545  S
Cu1191     O2354   2.017       .  S
Cu1191    Cu3528   2.355   1_545  S
Cu1192     O3524   2.034       .  S
Cu1192     O2357   2.041   1_565  S
Cu1192    Cu3527   2.356   1_665  S
C1193      C1626   1.513       .  S
C1194      C1658   1.516       .  S
C1195      C1674   1.495       .  S
C1196      C1642   1.504       .  S
N1197      H1229   1.034       .  S
N1197      C1786   1.365   1_554  A
N1197      C1201   1.356       .  A
N1198      C1205   1.353       .  A
N1198      C1206   1.359       .  A
N1199      H1230   1.040       .  S
N1199      C1788   1.355       .  A
N1199      C1203   1.362   1_556  A
N1200      C1207   1.361       .  A
N1200      C1208   1.359       .  A
C1201      C1209   1.387       .  A
C1201      C1217   1.434       .  A
C1202      N1781   1.363       .  A
C1202      C1218   1.432       .  A
C1202      C1210   1.388       .  A
C1203      C1211   1.387       .  A
C1203      C1220   1.429       .  A
C1204      N1783   1.354       .  A
C1204      C1219   1.422       .  A
C1204      C1212   1.388       .  A
C1205      C1217   1.433       .  A
C1205      C1213   1.391       .  A
C1206      C1220   1.416       .  A
C1206      C1214   1.379       .  A
C1207      C1215   1.391       .  A
C1207      C1218   1.445       .  A
C1208      C1216   1.374       .  A
C1208      C1219   1.416       .  A
C1209      C1794   1.382   1_554  A
C1209      H1221   1.083       .  S
C1210      C1793   1.379       .  A
C1210      H1222   1.082       .  S
C1211      C1796   1.381   1_554  A
C1211      H1223   1.081       .  S
C1212      C1795   1.379       .  A
C1212      H1224   1.080       .  S
C1213      C1214   1.378       .  A
C1213      H1225   1.076       .  S
C1214      H1226   1.082       .  S
C1215      C1216   1.368       .  A
C1215      H1227   1.070       .  S
C1216      H1228   1.080       .  S
C1217      C1398   1.538       .  S
C1218      C1383   1.555       .  S
C1219      C1269   1.501       .  S
C1220      C1260   1.520       .  S
C1231      C1232   1.538       .  S
C1231      C1237   1.533       .  S
C1231      C1235   1.563       .  S
C1231      C1722   1.559       .  S
C1232      H1239   1.076       .  S
C1232      C1233   1.364       .  D
C1233      C1336   1.502       .  S
C1233      C1234   1.534       .  S
C1234      C1238   1.510       .  S
C1234      C1236   1.563       .  S
C1234      H1240   1.085       .  S
C1235      H1241   1.085       .  S
C1235      C1236   1.389       .  D
C1236      C1367   1.548       .  S
C1237      H1242   1.087       .  S
C1237      C1238   1.355       .  D
C1238      C1610   1.462       .  S
C1243      C1244   1.532       .  S
C1243      C1249   1.504       .  S
C1243      C1247   1.559       .  S
C1243      C1677   1.562       .  S
C1244      H1251   1.067       .  S
C1244      C1245   1.385       .  D
C1245      C1368   1.546       .  S
C1245      C1246   1.585       .  S
C1246      C1250   1.555       .  S
C1246      C1248   1.542       .  S
C1246      H1252   1.091       .  S
C1247      H1253   1.079       .  S
C1247      C1248   1.373       .  D
C1248      C1335   1.518       .  S
C1249      H1254   1.090       .  S
C1249      C1250   1.349       .  D
C1250      C1597   1.498       .  S
C1255      C1256   1.559       .  S
C1255      C1261   1.529       .  S
C1255      C1259   1.536       .  S
C1255      C1645   1.547       .  S
C1256      H1263   1.077       .  S
C1256      C1257   1.382       .  D
C1257      C1484   1.540       .  S
C1257      C1258   1.561       .  S
C1258      C1262   1.550       .  S
C1258      C1260   1.557       .  S
C1258      H1264   1.109       .  S
C1259      H1265   1.086       .  S
C1259      C1260   1.368       .  D
C1261      H1266   1.083       .  S
C1261      C1262   1.344       .  D
C1262      C1578   1.478       .  S
C1267      C1268   1.532       .  S
C1267      C1273   1.529       .  S
C1267      C1271   1.596       .  S
C1267      C1690   1.576       .  S
C1268      H1275   1.076       .  S
C1268      C1269   1.359       .  D
C1269      C1270   1.545       .  S
C1270      C1274   1.526       .  S
C1270      C1272   1.543       .  S
C1270      H1276   1.076       .  S
C1271      H1277   1.081       .  S
C1271      C1272   1.412       .  D
C1272      C1483   1.573       .  S
C1273      H1278   1.082       .  S
C1273      C1274   1.341       .  D
C1274      C1562   1.486       .  S
N1279      H1311   1.040       .  S
N1279      C1284   1.348       .  A
N1279      C1867   1.356       .  A
N1280      C1288   1.331       .  A
N1281      H1312   1.040       .  S
N1281      C1286   1.354       .  A
N1281      C1869   1.350       .  A
N1282      C1290   1.336       .  A
C1283      N1863   1.353       .  A
C1283      C1291   1.395   1_565  A
C1283      C1299   1.424       .  A
C1284      C1300   1.414   1_556  A
C1284      C1292   1.385   1_565  A
C1285      N1865   1.348       .  A
C1285      C1293   1.385       .  A
C1285      C1302   1.405       .  A
C1286      C1301   1.419   1_556  A
C1286      C1294   1.389       .  A
C1287      C1299   1.368       .  A
C1287      C1295   1.383   1_565  A
C1288      C1302   1.377       .  A
C1288      C1296   1.386       .  A
C1289      C1297   1.385   1_565  A
C1289      C1300   1.405       .  A
C1290      C1298   1.389       .  A
C1290      C1301   1.405       .  A
C1291      C1876   1.370       .  A
C1291      H1303   1.081       .  S
C1292      C1875   1.370       .  A
C1292      H1304   1.083       .  S
C1293      C1878   1.368       .  A
C1293      H1305   1.082       .  S
C1294      C1877   1.369       .  A
C1294      H1306   1.082   1_556  S
C1295      H1307   1.082       .  S
C1296      H1308   1.082       .  S
C1297      H1309   1.082   1_545  S
C1298      H1310   1.082       .  S
C1299      C1613   1.483       .  S
C1300      C1594   1.491       .  S
C1301      C1581   1.473       .  S
C1302      C1565   1.444       .  S
N1313      H1345   1.037       .  S
N1313      C1318   1.359       .  A
N1313      C1901   1.365   1_554  A
N1314      C1321   1.356       .  A
N1314      C1322   1.355       .  A
N1315      H1346   1.041       .  S
N1315      C1320   1.356       .  A
N1315      C1903   1.357   1_554  A
N1316      C1323   1.359       .  A
N1316      C1324   1.363       .  A
C1317      N1897   1.364       .  A
C1317      C1325   1.383       .  A
C1317      C1333   1.427       .  A
C1318      C1334   1.435       .  A
C1318      C1326   1.385       .  A
C1319      N1899   1.356       .  A
C1319      C1327   1.393       .  A
C1319      C1336   1.428       .  A
C1320      C1335   1.413       .  A
C1320      C1328   1.379       .  A
C1321      C1333   1.430       .  A
C1321      C1329   1.384       .  A
C1322      C1336   1.420       .  A
C1322      C1330   1.383       .  A
C1323      C1331   1.389       .  A
C1323      C1334   1.437       .  A
C1324      C1332   1.380       .  A
C1324      C1335   1.425       .  A
C1325      C1910   1.372       .  A
C1325      H1337   1.080       .  S
C1326      C1909   1.373   1_554  A
C1326      H1338   1.079       .  S
C1327      C1912   1.373       .  A
C1327      H1339   1.078       .  S
C1328      C1911   1.369   1_554  A
C1328      H1340   1.075       .  S
C1329      C1330   1.364       .  A
C1329      H1341   1.074       .  S
C1330      H1342   1.077       .  S
C1331      C1332   1.381       .  A
C1331      H1343   1.081       .  S
C1332      H1344   1.080       .  S
C1333      C1419   1.550       .  S
C1334      C1410   1.545       .  S
N1347      H1379   1.036       .  S
N1347      C1352   1.358       .  A
N1347      C1351   1.364       .  A
N1348      C1355   1.353       .  A
N1348      C1356   1.351       .  A
N1349      H1380   1.036       .  S
N1349      C1354   1.356       .  A
N1349      C1353   1.361       .  A
N1350      C1357   1.361       .  A
N1350      C1358   1.359       .  A
C1351      C1359   1.376       .  A
C1351      C1367   1.426       .  A
C1352      C1368   1.442       .  A
C1352      C1360   1.392       .  A
C1353      C1361   1.386       .  A
C1353      C1370   1.429       .  A
C1354      C1369   1.428       .  A
C1354      C1362   1.387       .  A
C1355      C1367   1.421       .  A
C1355      C1363   1.378       .  A
C1356      C1370   1.413       .  A
C1356      C1364   1.378       .  A
C1357      C1365   1.383       .  A
C1357      C1368   1.430       .  A
C1358      C1366   1.380       .  A
C1358      C1369   1.427       .  A
C1359      C1360   1.380       .  A
C1359      H1371   1.078       .  S
C1360      H1372   1.079       .  S
C1361      C1362   1.374       .  A
C1361      H1373   1.079       .  S
C1362      H1374   1.079       .  S
C1363      C1364   1.363       .  A
C1363      H1375   1.077       .  S
C1364      H1376   1.075       .  S
C1365      C1366   1.368       .  A
C1365      H1377   1.074       .  S
C1366      H1378   1.075       .  S
C1369      C1395   1.509       .  S
C1370      C1386   1.505       .  S
C1381      C1382   1.577       .  S
C1381      C1387   1.540       .  S
C1381      C1385   1.547       .  S
C1381      C1709   1.575       .  S
C1382      H1389   1.081       .  S
C1382      C1383   1.399       .  D
C1383      C1384   1.547       .  S
C1384      C1388   1.504       .  S
C1384      C1386   1.530       .  S
C1384      H1390   1.080       .  S
C1385      H1391   1.071       .  S
C1385      C1386   1.360       .  D
C1387      H1392   1.087       .  S
C1387      C1388   1.357       .  D
C1388      C1546   1.462       .  S
C1393      C1394   1.541       .  S
C1393      C1399   1.532       .  S
C1393      C1397   1.554       .  S
C1393      C1629   1.563       .  S
C1394      H1401   1.086       .  S
C1394      C1395   1.363       .  D
C1395      C1396   1.546       .  S
C1396      C1400   1.540       .  S
C1396      C1398   1.563       .  S
C1396      H1402   1.095       .  S
C1397      H1403   1.070       .  S
C1397      C1398   1.392       .  D
C1399      H1404   1.088       .  S
C1399      C1400   1.352       .  D
C1400      C1533   1.489       .  S
C1405      C1406   1.551       .  S
C1405      C1411   1.526       .  S
C1405      C1409   1.552       .  S
C1405      C1661   1.561       .  S
C1406      H1413   1.086       .  S
C1406      C1407   1.369       .  D
C1407      C1485   1.514       .  S
C1407      C1408   1.541       .  S
C1408      C1412   1.536       .  S
C1408      C1410   1.559       .  S
C1408      H1414   1.095       .  S
C1409      H1415   1.074       .  S
C1409      C1410   1.394       .  D
C1411      H1416   1.088       .  S
C1411      C1412   1.349       .  D
C1412      C1514   1.473       .  S
C1417      C1418   1.572       .  S
C1417      C1423   1.507       .  S
C1417      C1421   1.549       .  S
C1417      C1741   1.572       .  S
C1418      H1425   1.075       .  S
C1418      C1419   1.404       .  D
C1419      C1420   1.560       .  S
C1420      C1424   1.550       .  S
C1420      C1422   1.551       .  S
C1420      H1426   1.094       .  S
C1421      H1427   1.078       .  S
C1421      C1422   1.366       .  D
C1422      C1486   1.529       .  S
C1423      H1428   1.080       .  S
C1423      C1424   1.335       .  D
C1424      C1498   1.491       .  S
N1429      H1461   1.041       .  S
N1429      C1434   1.346       .  A
N1429      C1433   1.352       .  A
N1430      C1437   1.348       .  A
N1430      C3774   1.346   1_455  A
N1431      H1462   1.042       .  S
N1431      C1436   1.353       .  A
N1431      C1435   1.353       .  A
N1432      C1439   1.342   1_655  A
N1432      C3776   1.345       .  A
C1433      C1441   1.385       .  A
C1433      C1449   1.418       .  A
C1434      C1450   1.410       .  A
C1434      C1442   1.384       .  A
C1435      C1443   1.389       .  A
C1435      C1452   1.411       .  A
C1436      C1451   1.415       .  A
C1436      C1444   1.384       .  A
C1437      C1449   1.410       .  A
C1437      C1445   1.391       .  A
C1438      N3766   1.347       .  A
C1438      C1452   1.391       .  A
C1438      C1446   1.379       .  A
C1439      C1447   1.388       .  A
C1439      C1450   1.401       .  A
C1440      N3768   1.343       .  A
C1440      C1448   1.381       .  A
C1440      C1451   1.388       .  A
C1441      C1442   1.383       .  A
C1441      H1453   1.076       .  S
C1442      H1454   1.081       .  S
C1443      C1444   1.373       .  A
C1443      H1455   1.083       .  S
C1444      H1456   1.083       .  S
C1445      C3782   1.372   1_455  A
C1445      H1457   1.082       .  S
C1446      C3781   1.374       .  A
C1446      H1458   1.083       .  S
C1447      C3784   1.371   1_455  A
C1447      H1459   1.082       .  S
C1448      C3783   1.375       .  A
C1448      H1460   1.081       .  S
C1449      C1549   1.508       .  S
C1450      C1530   1.483       .  S
C1451      C1517   1.476       .  S
C1452      C1501   1.475       .  S
N1463      H1495   1.041       .  S
N1463      C1468   1.363       .  A
N1463      C1467   1.362       .  A
N1464      C1471   1.371       .  A
N1464      C1472   1.373       .  A
N1465      H1496   1.042       .  S
N1465      C1470   1.356       .  A
N1465      C1469   1.352       .  A
N1466      C1473   1.357       .  A
N1466      C1474   1.363       .  A
C1467      C1475   1.389       .  A
C1467      C1483   1.435       .  A
C1468      C1484   1.431       .  A
C1468      C1476   1.386       .  A
C1469      C1477   1.382       .  A
C1469      C1486   1.406       .  A
C1470      C1485   1.412       .  A
C1470      C1478   1.379       .  A
C1471      C1483   1.466       .  A
C1471      C1479   1.390       .  A
C1472      C1486   1.436       .  A
C1472      C1480   1.370       .  A
C1473      C1481   1.379       .  A
C1473      C1484   1.430       .  A
C1474      C1482   1.375       .  A
C1474      C1485   1.411       .  A
C1475      C1476   1.382       .  A
C1475      H1487   1.082       .  S
C1476      H1488   1.082       .  S
C1477      C1478   1.373       .  A
C1477      H1489   1.081       .  S
C1478      H1490   1.070       .  S
C1479      C1480   1.374       .  A
C1479      H1491   1.074       .  S
C1480      H1492   1.078       .  S
C1481      C1482   1.371       .  A
C1481      H1493   1.057       .  S
C1482      H1494   1.082       .  S
C1497      C1498   1.405       .  A
C1497      C1502   1.399       .  A
C1497      H1504   1.075       .  S
C1498      C1499   1.429       .  A
C1499      C1500   1.402       .  A
C1499      C1506   1.526       .  S
C1500      C1501   1.398       .  A
C1500      H1505   1.083       .  S
C1501      C1502   1.401       .  A
C1502      C1503   1.507       .  S
C1503      F1507   1.372       .  S
C1503      F1508   1.383       .  S
C1503      F1509   1.383       .  S
C1506      F1510   1.381       .  S
C1506      F1511   1.383       .  S
C1506      F1512   1.384       .  S
C1513      C1514   1.399       .  A
C1513      C1518   1.401       .  A
C1513      H1520   1.081       .  S
C1514      C1515   1.416       .  A
C1515      C1516   1.396       .  A
C1515      C1522   1.513       .  S
C1516      C1517   1.400       .  A
C1516      H1521   1.086       .  S
C1517      C1518   1.406       .  A
C1518      C1519   1.499       .  S
C1519      F1523   1.377       .  S
C1519      F1524   1.383       .  S
C1519      F1525   1.381       .  S
C1522      F1526   1.383       .  S
C1522      F1527   1.378       .  S
C1522      F1528   1.377       .  S
C1529      C1530   1.394       .  A
C1529      C1534   1.404       .  A
C1529      H1536   1.085       .  S
C1530      C1531   1.425       .  A
C1531      C1532   1.403       .  A
C1531      C1538   1.525       .  S
C1532      C1533   1.402       .  A
C1532      H1537   1.083       .  S
C1533      C1534   1.420       .  A
C1534      C1535   1.506       .  S
C1535      F1539   1.385       .  S
C1535      F1540   1.374       .  S
C1535      F1541   1.373       .  S
C1538      F1542   1.371       .  S
C1538      F1543   1.381       .  S
C1538      F1544   1.385       .  S
C1545      C1546   1.403       .  A
C1545      C1550   1.400       .  A
C1545      H1552   1.085       .  S
C1546      C1547   1.402       .  A
C1547      C1548   1.392       .  A
C1547      C1554   1.522       .  S
C1548      C1549   1.417       .  A
C1548      H1553   1.067       .  S
C1549      C1550   1.420       .  A
C1550      C1551   1.518       .  S
C1551      F1555   1.381       .  S
C1551      F1556   1.380       .  S
C1551      F1557   1.383       .  S
C1554      F1558   1.379       .  S
C1554      F1559   1.379       .  S
C1554      F1560   1.384       .  S
C1561      C1562   1.408       .  A
C1561      C1566   1.393       .  A
C1561      H1568   1.081       .  S
C1562      C1563   1.445       .  A
C1563      C1564   1.387       .  A
C1563      C1570   1.522       .  S
C1564      C1565   1.376       .  A
C1564      H1569   1.085       .  S
C1565      C1566   1.400       .  A
C1566      C1567   1.516       .  S
C1567      F1571   1.376       .  S
C1567      F1572   1.375       .  S
C1567      F1573   1.381       .  S
C1570      F1574   1.386       .  S
C1570      F1575   1.371       .  S
C1570      F1576   1.378       .  S
C1577      C1578   1.390       .  A
C1577      C1582   1.390       .  A
C1577      H1584   1.085       .  S
C1578      C1579   1.434       .  A
C1579      C1580   1.403       .  A
C1579      C1586   1.523       .  S
C1580      C1581   1.395       .  A
C1580      H1585   1.084       .  S
C1581      C1582   1.414       .  A
C1582      C1583   1.505       .  S
C1583      F1587   1.383       .  S
C1583      F1588   1.380   1_554  S
C1583      F1589   1.381       .  S
C1586      F1590   1.382       .  S
C1586      F1591   1.382       .  S
C1586      F1592   1.386       .  S
C1593      C1594   1.415       .  A
C1593      C1598   1.412       .  A
C1593      H1600   1.082       .  S
C1594      C1595   1.411       .  A
C1595      C1596   1.397       .  A
C1595      C1602   1.526       .  S
C1596      C1597   1.414       .  A
C1596      H1601   1.077       .  S
C1597      C1598   1.411       .  A
C1598      C1599   1.514       .  S
C1599      F1603   1.385       .  S
C1599      F1604   1.382       .  S
C1599      F1605   1.382       .  S
C1602      F1606   1.384       .  S
C1602      F1607   1.381   1_554  S
C1602      F1608   1.385       .  S
C1609      C1610   1.399       .  A
C1609      C1614   1.385       .  A
C1609      H1616   1.072       .  S
C1610      C1611   1.402       .  A
C1611      C1612   1.401       .  A
C1611      C1618   1.510       .  S
C1612      C1613   1.409       .  A
C1612      H1617   1.084       .  S
C1613      C1614   1.413       .  A
C1614      C1615   1.520       .  S
C1615      F1619   1.385       .  S
C1615      F1620   1.380       .  S
C1615      F1621   1.383       .  S
C1618      F1622   1.381       .  S
C1618      F1623   1.385       .  S
C1618      F1624   1.383       .  S
C1625      C1626   1.413       .  A
C1625      C1630   1.422       .  A
C1625      H1632   1.083       .  S
C1626      C1627   1.423       .  A
C1627      C1628   1.406       .  A
C1627      C1634   1.524       .  S
C1628      C1629   1.416       .  A
C1628      H1633   1.081       .  S
C1629      C1630   1.427       .  A
C1630      C1631   1.514       .  S
C1631      F1635   1.385       .  S
C1631      F1636   1.382       .  S
C1631      F1637   1.384       .  S
C1634      F1638   1.383       .  S
C1634      F1639   1.383       .  S
C1634      F1640   1.385       .  S
C1641      C1642   1.416       .  A
C1641      C1646   1.410       .  A
C1641      H1648   1.084       .  S
C1642      C1643   1.425       .  A
C1643      C1644   1.410       .  A
C1643      C1650   1.521       .  S
C1644      C1645   1.412       .  A
C1644      H1649   1.083       .  S
C1645      C1646   1.413       .  A
C1646      C1647   1.512       .  S
C1647      F1651   1.384       .  S
C1647      F1652   1.383       .  S
C1647      F1653   1.383       .  S
C1650      F1654   1.383       .  S
C1650      F1655   1.384       .  S
C1650      F1656   1.385       .  S
C1657      C1658   1.415       .  A
C1657      C1662   1.420       .  A
C1657      H1664   1.084       .  S
C1658      C1659   1.427       .  A
C1659      C1660   1.411       .  A
C1659      C1666   1.523       .  S
C1660      C1661   1.412       .  A
C1660      H1665   1.082       .  S
C1661      C1662   1.422       .  A
C1662      C1663   1.514       .  S
C1663      F1667   1.383       .  S
C1663      F1668   1.382       .  S
C1663      F1669   1.383       .  S
C1666      F1670   1.383       .  S
C1666      F1671   1.384       .  S
C1666      F1672   1.383       .  S
C1673      C1674   1.398       .  A
C1673      C1678   1.412       .  A
C1673      H1680   1.082       .  S
C1674      C1675   1.413       .  A
C1675      C1676   1.414       .  A
C1675      C1682   1.521       .  S
C1676      C1677   1.423       .  A
C1676      H1681   1.074       .  S
C1677      C1678   1.442       .  A
C1678      C1679   1.526       .  S
C1679      F1683   1.382       .  S
C1679      F1684   1.382       .  S
C1679      F1685   1.385       .  S
C1682      F1686   1.384       .  S
C1682      F1687   1.382       .  S
C1682      F1688   1.385       .  S
C1689      C1690   1.415       .  A
C1689      C1694   1.425       .  A
C1689      H1696   1.077       .  S
C1690      C1691   1.442       .  A
C1691      C1692   1.417       .  A
C1691      C1698   1.516       .  S
C1692      C1693   1.397       .  A
C1692      H1697   1.083       .  S
C1693      C1694   1.430       .  A
C1694      C1695   1.522       .  S
C1695      F1699   1.385       .  S
C1695      F1700   1.383       .  S
C1695      F1701   1.384       .  S
C1698      F1702   1.381       .  S
C1698      F1703   1.379       .  S
C1698      F1704   1.386       .  S
C1705      C1706   1.399       .  A
C1705      C1710   1.421       .  A
C1705      H1712   1.083       .  S
C1706      C1707   1.428       .  A
C1707      C1708   1.416       .  A
C1707      C1714   1.519       .  S
C1708      C1709   1.412       .  A
C1708      H1713   1.079       .  S
C1709      C1710   1.444       .  A
C1710      C1711   1.520       .  S
C1711      F1715   1.386       .  S
C1711      F1716   1.379       .  S
C1711      F1717   1.384       .  S
C1714      F1718   1.385       .  S
C1714      F1719   1.376       .  S
C1714      F1720   1.383       .  S
C1721      C1722   1.420       .  A
C1721      C1726   1.416       .  A
C1721      H1728   1.075       .  S
C1722      C1723   1.439       .  A
C1723      C1724   1.406       .  A
C1723      C1730   1.525       .  S
C1724      C1725   1.398       .  A
C1724      H1729   1.086       .  S
C1725      C1726   1.410       .  A
C1726      C1727   1.512       .  S
C1727      F1731   1.382       .  S
C1727      F1732   1.383       .  S
C1727      F1733   1.385       .  S
C1730      F1734   1.384       .  S
C1730      F1735   1.372       .  S
C1730      F1736   1.384       .  S
C1737      C1738   1.401       .  A
C1737      C1742   1.419       .  A
C1737      H1744   1.082       .  S
C1738      C1739   1.435       .  A
C1739      C1740   1.424       .  A
C1739      C1746   1.522       .  S
C1740      C1741   1.412       .  A
C1740      H1745   1.077       .  S
C1741      C1742   1.443       .  A
C1742      C1743   1.522       .  S
C1743      F1747   1.383       .  S
C1743      F1748   1.381       .  S
C1743      F1749   1.380       .  S
C1746      F1750   1.383       .  S
C1746      F1751   1.384       .  S
C1746      F1752   1.384       .  S
O1753      C1763   1.270       .  A
O1753     Cu2929   1.997   1_455  S
O1754      C1764   1.270       .  A
O1754     Cu1761   1.972       .  S
O1755      C1765   1.291       .  A
O1756      C1766   1.288       .  A
O1756     Cu4097   2.072   1_455  S
O1757      C1766   1.273       .  A
O1758      C1765   1.270       .  A
O1758     Cu4098   1.996       .  S
O1759      C1764   1.288       .  A
O1759     Cu2930   2.086   1_565  S
O1760      C1763   1.290       .  A
O1760     Cu1762   2.078       .  S
Cu1761     O2921   2.003   1_565  S
Cu1761     O4092   2.079       .  S
Cu1761    Cu2930   2.356   1_565  S
Cu1762     O4094   1.998   1_455  S
Cu1762     O2927   2.091   1_455  S
Cu1762    Cu2929   2.355   1_455  S
C1763      C2277   1.514       .  S
C1764      C2309   1.493       .  S
C1765      C2322   1.523       .  S
C1766      C2290   1.509       .  S
O1767      C1777   1.278       .  A
O1767     Cu4111   2.019   1_565  S
O1768      C1778   1.278       .  A
O1769      C1779   1.275       .  A
O1769     Cu1775   1.991   1_565  S
O1770      C1780   1.275       .  A
O1770     Cu2943   1.995       .  S
O1771      C1780   1.282       .  A
O1772      C1779   1.281       .  A
O1772     Cu4112   2.036       .  S
O1773      C1778   1.281       .  A
O1773     Cu2944   2.043       .  S
O1774      C1777   1.280       .  A
O1774     Cu1776   2.035   1_455  S
Cu1775     O4103   2.028   1_545  S
Cu1775     O2938   1.998       .  S
Cu1775    Cu4112   2.356   1_545  S
Cu1776     O4108   2.034       .  S
Cu1776     O2941   2.038   1_565  S
Cu1776    Cu4111   2.356   1_665  S
C1777      C2210   1.509       .  S
C1778      C2242   1.514       .  S
C1779      C2258   1.486       .  S
C1780      C2226   1.505       .  S
N1781      H1813   1.036       .  S
N1781      C1785   1.355       .  A
N1782      C1789   1.351       .  A
N1782      C1790   1.357       .  A
N1783      H1814   1.040       .  S
N1783      C1787   1.361       .  A
N1784      C1791   1.360       .  A
N1784      C1792   1.358       .  A
C1785      C1793   1.386       .  A
C1785      C1801   1.428       .  A
C1786      C1802   1.437       .  A
C1786      C1794   1.388       .  A
C1787      C1795   1.386       .  A
C1787      C1804   1.427       .  A
C1788      C1803   1.423       .  A
C1788      C1796   1.388       .  A
C1789      C1801   1.427       .  A
C1789      C1797   1.389       .  A
C1790      C1804   1.413       .  A
C1790      C1798   1.379       .  A
C1791      C1799   1.389       .  A
C1791      C1802   1.442       .  A
C1792      C1800   1.374       .  A
C1792      C1803   1.413       .  A
C1793      H1805   1.083       .  S
C1794      H1806   1.082       .  S
C1795      H1807   1.081       .  S
C1796      H1808   1.081       .  S
C1797      C1798   1.375       .  A
C1797      H1809   1.076       .  S
C1798      H1810   1.082       .  S
C1799      C1800   1.366       .  A
C1799      H1811   1.070       .  S
C1800      H1812   1.079       .  S
C1801      C1982   1.530       .  S
C1802      C1967   1.560       .  S
C1803      C1853   1.499       .  S
C1804      C1844   1.516       .  S
C1815      C1816   1.537       .  S
C1815      C1821   1.531       .  S
C1815      C1819   1.564       .  S
C1815      C2306   1.560       .  S
C1816      H1823   1.078       .  S
C1816      C1817   1.365       .  D
C1817      C1920   1.506       .  S
C1817      C1818   1.539       .  S
C1818      C1822   1.516       .  S
C1818      C1820   1.568       .  S
C1818      H1824   1.086       .  S
C1819      H1825   1.084       .  S
C1819      C1820   1.388       .  D
C1820      C1951   1.552       .  S
C1821      H1826   1.087       .  S
C1821      C1822   1.355       .  D
C1822      C2194   1.469       .  S
C1827      C1828   1.532       .  S
C1827      C1833   1.508       .  S
C1827      C1831   1.556       .  S
C1827      C2261   1.556       .  S
C1828      H1835   1.068       .  S
C1828      C1829   1.383       .  D
C1829      C1952   1.556       .  S
C1829      C1830   1.590       .  S
C1830      C1834   1.556       .  S
C1830      C1832   1.547       .  S
C1830      H1836   1.090       .  S
C1831      H1837   1.077       .  S
C1831      C1832   1.370       .  D
C1832      C1919   1.520       .  S
C1833      H1838   1.090       .  S
C1833      C1834   1.351       .  D
C1834      C2181   1.499       .  S
C1839      C1840   1.561       .  S
C1839      C1845   1.527       .  S
C1839      C1843   1.537       .  S
C1839      C2229   1.549       .  S
C1840      H1847   1.075       .  S
C1840      C1841   1.383       .  D
C1841      C2068   1.544       .  S
C1841      C1842   1.562       .  S
C1842      C1846   1.548       .  S
C1842      C1844   1.554       .  S
C1842      H1848   1.108       .  S
C1843      H1849   1.086       .  S
C1843      C1844   1.368       .  D
C1845      H1850   1.084       .  S
C1845      C1846   1.343       .  D
C1846      C2162   1.475       .  S
C1851      C1852   1.529       .  S
C1851      C1857   1.530       .  S
C1851      C1855   1.594       .  S
C1851      C2274   1.566       .  S
C1852      H1859   1.077       .  S
C1852      C1853   1.357       .  D
C1853      C1854   1.544       .  S
C1854      C1858   1.525       .  S
C1854      C1856   1.548       .  S
C1854      H1860   1.075       .  S
C1855      H1861   1.080       .  S
C1855      C1856   1.411       .  D
C1856      C2067   1.575       .  S
C1857      H1862   1.081       .  S
C1857      C1858   1.340       .  D
C1858      C2146   1.484       .  S
N1863      H1895   1.039       .  S
N1863      C1868   1.346       .  A
N1864      C1872   1.331       .  A
N1865      H1896   1.040       .  S
N1865      C1870   1.356       .  A
N1866      C1874   1.336       .  A
C1867      C1875   1.394   1_565  A
C1867      C1883   1.428       .  A
C1868      C1884   1.410       .  A
C1868      C1876   1.385   1_565  A
C1869      C1877   1.386       .  A
C1869      C1886   1.408       .  A
C1870      C1885   1.421       .  A
C1870      C1878   1.390       .  A
C1871      C1883   1.374       .  A
C1871      C1879   1.383   1_565  A
C1872      C1886   1.379       .  A
C1872      C1880   1.387       .  A
C1873      C1881   1.384   1_565  A
C1873      C1884   1.408       .  A
C1874      C1882   1.389       .  A
C1874      C1885   1.407       .  A
C1875      H1887   1.081       .  S
C1876      H1888   1.083       .  S
C1877      H1889   1.082       .  S
C1878      H1890   1.082       .  S
C1879      H1891   1.081       .  S
C1880      H1892   1.082       .  S
C1881      H1893   1.082   1_545  S
C1882      H1894   1.082       .  S
C1883      C2197   1.487       .  S
C1884      C2178   1.493       .  S
C1885      C2165   1.479       .  S
C1886      C2149   1.449       .  S
N1897      H1929   1.038       .  S
N1897      C1902   1.356       .  A
N1898      C1905   1.356       .  A
N1898      C1906   1.358       .  A
N1899      H1930   1.040       .  S
N1899      C1904   1.358       .  A
N1900      C1907   1.358       .  A
N1900      C1908   1.362       .  A
C1901      C1909   1.384       .  A
C1901      C1917   1.433       .  A
C1902      C1918   1.428       .  A
C1902      C1910   1.384       .  A
C1903      C1911   1.391       .  A
C1903      C1920   1.424       .  A
C1904      C1919   1.416       .  A
C1904      C1912   1.379       .  A
C1905      C1917   1.432       .  A
C1905      C1913   1.385       .  A
C1906      C1920   1.420       .  A
C1906      C1914   1.380       .  A
C1907      C1915   1.387       .  A
C1907      C1918   1.431       .  A
C1908      C1916   1.380       .  A
C1908      C1919   1.422       .  A
C1909      H1921   1.080       .  S
C1910      H1922   1.080       .  S
C1911      H1923   1.078       .  S
C1912      H1924   1.076       .  S
C1913      C1914   1.366       .  A
C1913      H1925   1.075       .  S
C1914      H1926   1.076       .  S
C1915      C1916   1.377       .  A
C1915      H1927   1.081       .  S
C1916      H1928   1.079       .  S
C1917      C2003   1.553       .  S
C1918      C1994   1.537       .  S
N1931      H1963   1.041       .  S
N1931      C1936   1.362       .  A
N1931      C1935   1.366       .  A
N1932      C1939   1.353       .  A
N1932      C1940   1.352       .  A
N1933      H1964   1.041       .  S
N1933      C1938   1.357       .  A
N1933      C1937   1.361       .  A
N1934      C1941   1.362       .  A
N1934      C1942   1.362       .  A
C1935      C1943   1.377       .  A
C1935      C1951   1.433       .  A
C1936      C1952   1.449       .  A
C1936      C1944   1.391       .  A
C1937      C1945   1.386       .  A
C1937      C1954   1.430       .  A
C1938      C1953   1.427       .  A
C1938      C1946   1.387       .  A
C1939      C1951   1.420       .  A
C1939      C1947   1.378       .  A
C1940      C1954   1.412       .  A
C1940      C1948   1.377       .  A
C1941      C1949   1.383       .  A
C1941      C1952   1.433       .  A
C1942      C1950   1.379       .  A
C1942      C1953   1.430       .  A
C1943      C1944   1.382       .  A
C1943      H1955   1.077       .  S
C1944      H1956   1.081       .  S
C1945      C1946   1.372       .  A
C1945      H1957   1.077       .  S
C1946      H1958   1.079       .  S
C1947      C1948   1.361       .  A
C1947      H1959   1.077       .  S
C1948      H1960   1.075       .  S
C1949      C1950   1.369       .  A
C1949      H1961   1.075       .  S
C1950      H1962   1.075       .  S
C1953      C1979   1.515       .  S
C1954      C1970   1.508       .  S
C1965      C1966   1.579       .  S
C1965      C1971   1.538       .  S
C1965      C1969   1.548       .  S
C1965      C2293   1.580       .  S
C1966      H1973   1.082       .  S
C1966      C1967   1.399       .  D
C1967      C1968   1.555       .  S
C1968      C1972   1.504       .  S
C1968      C1970   1.532       .  S
C1968      H1974   1.083       .  S
C1969      H1975   1.070       .  S
C1969      C1970   1.361       .  D
C1971      H1976   1.087       .  S
C1971      C1972   1.356       .  D
C1972      C2130   1.460       .  S
C1977      C1978   1.543       .  S
C1977      C1983   1.534       .  S
C1977      C1981   1.550       .  S
C1977      C2213   1.564       .  S
C1978      H1985   1.086       .  S
C1978      C1979   1.365       .  D
C1979      C1980   1.548       .  S
C1980      C1984   1.541       .  S
C1980      C1982   1.561       .  S
C1980      H1986   1.094       .  S
C1981      H1987   1.069       .  S
C1981      C1982   1.391       .  D
C1983      H1988   1.088       .  S
C1983      C1984   1.350       .  D
C1984      C2117   1.492       .  S
C1989      C1990   1.551       .  S
C1989      C1995   1.527       .  S
C1989      C1993   1.548       .  S
C1989      C2245   1.557       .  S
C1990      H1997   1.086       .  S
C1990      C1991   1.369       .  D
C1991      C2069   1.512       .  S
C1991      C1992   1.538       .  S
C1992      C1996   1.536       .  S
C1992      C1994   1.557       .  S
C1992      H1998   1.096       .  S
C1993      H1999   1.073       .  S
C1993      C1994   1.391       .  D
C1995      H2000   1.088       .  S
C1995      C1996   1.348       .  D
C1996      C2098   1.472       .  S
C2001      C2002   1.571       .  S
C2001      C2007   1.511       .  S
C2001      C2005   1.545       .  S
C2001      C2325   1.568       .  S
C2002      H2009   1.074       .  S
C2002      C2003   1.403       .  D
C2003      C2004   1.564       .  S
C2004      C2008   1.552       .  S
C2004      C2006   1.552       .  S
C2004      H2010   1.093       .  S
C2005      H2011   1.078       .  S
C2005      C2006   1.364       .  D
C2006      C2070   1.525       .  S
C2007      H2012   1.076       .  S
C2007      C2008   1.338       .  D
C2008      C2082   1.499       .  S
N2013      H2045   1.042       .  S
N2013      C2018   1.347       .  A
N2013      C2017   1.352       .  A
N2014      C2021   1.346       .  A
N2014      C4358   1.347   1_455  A
N2015      H2046   1.043       .  S
N2015      C2020   1.353       .  A
N2015      C2019   1.352       .  A
N2016      C2023   1.344   1_655  A
N2016      C4360   1.344       .  A
C2017      C2025   1.387       .  A
C2017      C2033   1.420       .  A
C2018      C2034   1.412       .  A
C2018      C2026   1.384       .  A
C2019      C2027   1.387       .  A
C2019      C2036   1.408       .  A
C2020      C2035   1.413       .  A
C2020      C2028   1.384       .  A
C2021      C2033   1.409       .  A
C2021      C2029   1.392       .  A
C2022      N4350   1.345       .  A
C2022      C2036   1.390       .  A
C2022      C2030   1.380       .  A
C2023      C2031   1.389       .  A
C2023      C2034   1.404       .  A
C2024      N4352   1.343       .  A
C2024      C2032   1.380       .  A
C2024      C2035   1.386       .  A
C2025      C2026   1.384       .  A
C2025      H2037   1.079       .  S
C2026      H2038   1.080       .  S
C2027      C2028   1.371       .  A
C2027      H2039   1.083       .  S
C2028      H2040   1.082       .  S
C2029      C4366   1.373   1_455  A
C2029      H2041   1.082       .  S
C2030      C4365   1.375       .  A
C2030      H2042   1.083       .  S
C2031      C4368   1.372   1_455  A
C2031      H2043   1.082       .  S
C2032      C4367   1.374       .  A
C2032      H2044   1.081       .  S
C2033      C2133   1.506       .  S
C2034      C2114   1.487       .  S
C2035      C2101   1.475       .  S
C2036      C2085   1.478       .  S
N2047      H2079   1.041       .  S
N2047      C2052   1.363       .  A
N2047      C2051   1.364       .  A
N2048      C2055   1.370       .  A
N2048      C2056   1.373       .  A
N2049      H2080   1.041       .  S
N2049      C2054   1.355       .  A
N2049      C2053   1.352       .  A
N2050      C2057   1.358       .  A
N2050      C2058   1.365       .  A
C2051      C2059   1.389       .  A
C2051      C2067   1.438       .  A
C2052      C2068   1.434       .  A
C2052      C2060   1.387       .  A
C2053      C2061   1.384       .  A
C2053      C2070   1.407       .  A
C2054      C2069   1.409       .  A
C2054      C2062   1.379       .  A
C2055      C2067   1.465       .  A
C2055      C2063   1.390       .  A
C2056      C2070   1.435       .  A
C2056      C2064   1.369       .  A
C2057      C2065   1.378       .  A
C2057      C2068   1.433       .  A
C2058      C2066   1.372       .  A
C2058      C2069   1.411       .  A
C2059      C2060   1.382       .  A
C2059      H2071   1.082       .  S
C2060      H2072   1.082       .  S
C2061      C2062   1.370       .  A
C2061      H2073   1.080       .  S
C2062      H2074   1.071       .  S
C2063      C2064   1.372       .  A
C2063      H2075   1.074       .  S
C2064      H2076   1.078       .  S
C2065      C2066   1.365       .  A
C2065      H2077   1.049       .  S
C2066      H2078   1.082       .  S
C2081      C2082   1.406       .  A
C2081      C2086   1.400       .  A
C2081      H2088   1.077       .  S
C2082      C2083   1.433       .  A
C2083      C2084   1.404       .  A
C2083      C2090   1.525       .  S
C2084      C2085   1.394       .  A
C2084      H2089   1.083       .  S
C2085      C2086   1.400       .  A
C2086      C2087   1.503       .  S
C2087      F2091   1.373       .  S
C2087      F2092   1.383       .  S
C2087      F2093   1.380       .  S
C2090      F2094   1.381       .  S
C2090      F2095   1.383       .  S
C2090      F2096   1.384       .  S
C2097      C2098   1.398       .  A
C2097      C2102   1.399       .  A
C2097      H2104   1.081       .  S
C2098      C2099   1.417       .  A
C2099      C2100   1.397       .  A
C2099      C2106   1.513       .  S
C2100      C2101   1.400       .  A
C2100      H2105   1.086       .  S
C2101      C2102   1.403       .  A
C2102      C2103   1.496       .  S
C2103      F2107   1.378       .  S
C2103      F2108   1.384       .  S
C2103      F2109   1.381       .  S
C2106      F2110   1.383       .  S
C2106      F2111   1.377       .  S
C2106      F2112   1.378       .  S
C2113      C2114   1.396       .  A
C2113      C2118   1.407       .  A
C2113      H2120   1.085       .  S
C2114      C2115   1.424       .  A
C2115      C2116   1.404       .  A
C2115      C2122   1.525       .  S
C2116      C2117   1.401       .  A
C2116      H2121   1.083       .  S
C2117      C2118   1.423       .  A
C2118      C2119   1.508       .  S
C2119      F2123   1.385       .  S
C2119      F2124   1.374       .  S
C2119      F2125   1.374       .  S
C2122      F2126   1.372       .  S
C2122      F2127   1.381       .  S
C2122      F2128   1.384       .  S
C2129      C2130   1.399       .  A
C2129      C2134   1.397       .  A
C2129      H2136   1.085       .  S
C2130      C2131   1.399       .  A
C2131      C2132   1.391       .  A
C2131      C2138   1.519       .  S
C2132      C2133   1.417       .  A
C2132      H2137   1.068       .  S
C2133      C2134   1.422       .  A
C2134      C2135   1.516       .  S
C2135      F2139   1.382       .  S
C2135      F2140   1.375       .  S
C2135      F2141   1.383       .  S
C2138      F2142   1.380       .  S
C2138      F2143   1.378       .  S
C2138      F2144   1.385       .  S
C2145      C2146   1.405       .  A
C2145      C2150   1.390       .  A
C2145      H2152   1.081       .  S
C2146      C2147   1.444       .  A
C2147      C2148   1.393       .  A
C2147      C2154   1.525       .  S
C2148      C2149   1.381       .  A
C2148      H2153   1.085       .  S
C2149      C2150   1.402       .  A
C2150      C2151   1.516       .  S
C2151      F2155   1.376       .  S
C2151      F2156   1.375       .  S
C2151      F2157   1.382       .  S
C2154      F2158   1.386       .  S
C2154      F2159   1.374       .  S
C2154      F2160   1.379       .  S
C2161      C2162   1.389       .  A
C2161      C2166   1.391       .  A
C2161      H2168   1.086       .  S
C2162      C2163   1.431       .  A
C2163      C2164   1.405       .  A
C2163      C2170   1.523       .  S
C2164      C2165   1.396       .  A
C2164      H2169   1.084       .  S
C2165      C2166   1.416       .  A
C2166      C2167   1.503       .  S
C2167      F2171   1.382       .  S
C2167      F2172   1.379       .  S
C2167      F2173   1.382       .  S
C2170      F2174   1.381       .  S
C2170      F2175   1.383       .  S
C2170      F2176   1.385       .  S
C2177      C2178   1.414       .  A
C2177      C2182   1.410       .  A
C2177      H2184   1.082       .  S
C2178      C2179   1.415       .  A
C2179      C2180   1.399       .  A
C2179      C2186   1.527       .  S
C2180      C2181   1.414       .  A
C2180      H2185   1.079       .  S
C2181      C2182   1.410       .  A
C2182      C2183   1.513       .  S
C2183      F2187   1.384       .  S
C2183      F2188   1.383       .  S
C2183      F2189   1.381       .  S
C2186      F2190   1.383       .  S
C2186      F2191   1.381       .  S
C2186      F2192   1.385       .  S
C2193      C2194   1.401       .  A
C2193      C2198   1.395       .  A
C2193      H2200   1.075       .  S
C2194      C2195   1.405       .  A
C2195      C2196   1.401       .  A
C2195      C2202   1.508       .  S
C2196      C2197   1.407       .  A
C2196      H2201   1.083       .  S
C2197      C2198   1.417       .  A
C2198      C2199   1.522       .  S
C2199      F2203   1.385       .  S
C2199      F2204   1.379       .  S
C2199      F2205   1.382       .  S
C2202      F2206   1.382       .  S
C2202      F2207   1.384       .  S
C2202      F2208   1.384       .  S
C2209      C2210   1.412       .  A
C2209      C2214   1.424       .  A
C2209      H2216   1.083       .  S
C2210      C2211   1.422       .  A
C2211      C2212   1.403       .  A
C2211      C2218   1.525       .  S
C2212      C2213   1.415       .  A
C2212      H2217   1.081       .  S
C2213      C2214   1.431       .  A
C2214      C2215   1.516       .  S
C2215      F2219   1.386       .  S
C2215      F2220   1.382       .  S
C2215      F2221   1.383       .  S
C2218      F2222   1.384       .  S
C2218      F2223   1.383       .  S
C2218      F2224   1.385       .  S
C2225      C2226   1.415       .  A
C2225      C2230   1.409       .  A
C2225      H2232   1.084       .  S
C2226      C2227   1.424       .  A
C2227      C2228   1.410       .  A
C2227      C2234   1.519       .  S
C2228      C2229   1.413       .  A
C2228      H2233   1.082       .  S
C2229      C2230   1.414       .  A
C2230      C2231   1.510       .  S
C2231      F2235   1.384       .  S
C2231      F2236   1.381       .  S
C2231      F2237   1.383       .  S
C2234      F2238   1.383       .  S
C2234      F2239   1.383       .  S
C2234      F2240   1.385       .  S
C2241      C2242   1.415       .  A
C2241      C2246   1.420       .  A
C2241      H2248   1.084       .  S
C2242      C2243   1.427       .  A
C2243      C2244   1.408       .  A
C2243      C2250   1.523       .  S
C2244      C2245   1.410       .  A
C2244      H2249   1.082       .  S
C2245      C2246   1.422       .  A
C2246      C2247   1.515       .  S
C2247      F2251   1.385       .  S
C2247      F2252   1.383       .  S
C2247      F2253   1.384       .  S
C2250      F2254   1.383       .  S
C2250      F2255   1.384       .  S
C2250      F2256   1.382       .  S
C2257      C2258   1.397       .  A
C2257      C2262   1.406       .  A
C2257      H2264   1.083       .  S
C2258      C2259   1.411       .  A
C2259      C2260   1.413       .  A
C2259      C2266   1.519       .  S
C2260      C2261   1.420       .  A
C2260      H2265   1.074       .  S
C2261      C2262   1.437       .  A
C2262      C2263   1.525       .  S
C2263      F2267   1.382       .  S
C2263      F2268   1.381       .  S
C2263      F2269   1.384       .  S
C2266      F2270   1.384       .  S
C2266      F2271   1.382       .  S
C2266      F2272   1.385       .  S
C2273      C2274   1.411       .  A
C2273      C2278   1.421       .  A
C2273      H2280   1.078       .  S
C2274      C2275   1.440       .  A
C2275      C2276   1.412       .  A
C2275      C2282   1.514       .  S
C2276      C2277   1.396       .  A
C2276      H2281   1.083       .  S
C2277      C2278   1.431       .  A
C2278      C2279   1.521       .  S
C2279      F2283   1.384       .  S
C2279      F2284   1.383       .  S
C2279      F2285   1.383       .  S
C2282      F2286   1.379       .  S
C2282      F2287   1.380       .  S
C2282      F2288   1.386       .  S
C2289      C2290   1.396       .  A
C2289      C2294   1.420       .  A
C2289      H2296   1.083       .  S
C2290      C2291   1.429       .  A
C2291      C2292   1.415       .  A
C2291      C2298   1.522       .  S
C2292      C2293   1.414       .  A
C2292      H2297   1.082       .  S
C2293      C2294   1.447       .  A
C2294      C2295   1.520       .  S
C2295      F2299   1.386       .  S
C2295      F2300   1.377       .  S
C2295      F2301   1.383       .  S
C2298      F2302   1.384       .  S
C2298      F2303   1.373       .  S
C2298      F2304   1.383       .  S
C2305      C2306   1.421       .  A
C2305      C2310   1.419       .  A
C2305      H2312   1.075       .  S
C2306      C2307   1.438       .  A
C2307      C2308   1.405       .  A
C2307      C2314   1.521       .  S
C2308      C2309   1.395       .  A
C2308      H2313   1.086       .  S
C2309      C2310   1.410       .  A
C2310      C2311   1.510       .  S
C2311      F2315   1.382       .  S
C2311      F2316   1.383       .  S
C2311      F2317   1.384       .  S
C2314      F2318   1.382       .  S
C2314      F2319   1.371       .  S
C2314      F2320   1.383       .  S
C2321      C2322   1.400       .  A
C2321      C2326   1.418       .  A
C2321      H2328   1.082       .  S
C2322      C2323   1.434       .  A
C2323      C2324   1.421       .  A
C2323      C2330   1.523       .  S
C2324      C2325   1.410       .  A
C2324      H2329   1.077       .  S
C2325      C2326   1.443       .  A
C2326      C2327   1.525       .  S
C2327      F2331   1.382       .  S
C2327      F2332   1.381       .  S
C2327      F2333   1.379       .  S
C2330      F2334   1.383       .  S
C2330      F2335   1.384       .  S
C2330      F2336   1.384       .  S
O2337      C2347   1.271       .  A
O2338      C2348   1.271       .  A
O2338     Cu2345   1.981       .  S
O2339      C2349   1.292       .  A
O2339     Cu3513   2.096   1_545  S
O2340      C2350   1.290       .  A
O2341      C2350   1.272       .  A
O2341     Cu3514   2.010       .  S
O2342      C2349   1.269       .  A
O2343      C2348   1.288       .  A
O2344      C2347   1.291       .  A
O2344     Cu2346   2.091       .  S
Cu2345     O3507   2.086       .  S
Cu2346     O3509   2.021   1_545  S
C2347      C2861   1.521       .  S
C2348      C2893   1.492       .  S
C2349      C2906   1.525       .  S
C2350      C2874   1.510       .  S
O2351      C2361   1.278       .  A
O2352      C2362   1.278       .  A
O2352     Cu3527   2.019   1_655  S
O2353      C2363   1.275       .  A
O2353     Cu2359   1.994   1_655  S
O2354      C2364   1.278       .  A
O2355      C2364   1.279       .  A
O2355     Cu3528   2.030   1_545  S
O2356      C2363   1.280       .  A
O2357      C2362   1.281       .  A
O2358      C2361   1.280       .  A
O2358     Cu2360   2.031       .  S
Cu2359     O3520   2.032   1_455  S
Cu2360     O3523   2.032       .  S
C2361      C2794   1.509       .  S
C2362      C2826   1.513       .  S
C2363      C2842   1.485       .  S
C2364      C2810   1.506       .  S
N2365      H2397   1.034       .  S
N2365      C2954   1.363   1_554  A
N2365      C2369   1.355       .  A
N2366      C2373   1.352       .  A
N2366      C2374   1.357       .  A
N2367      H2398   1.039       .  S
N2367      C2956   1.356   1_554  A
N2367      C2371   1.362       .  A
N2368      C2375   1.360       .  A
N2368      C2376   1.360       .  A
C2369      C2377   1.388       .  A
C2369      C2385   1.431       .  A
C2370      N2949   1.359       .  A
C2370      C2386   1.429       .  A
C2370      C2378   1.388       .  A
C2371      C2379   1.387       .  A
C2371      C2388   1.430       .  A
C2372      N2951   1.356       .  A
C2372      C2387   1.423       .  A
C2372      C2380   1.387       .  A
C2373      C2385   1.430       .  A
C2373      C2381   1.390       .  A
C2374      C2388   1.415       .  A
C2374      C2382   1.379       .  A
C2375      C2383   1.389       .  A
C2375      C2386   1.441       .  A
C2376      C2384   1.374       .  A
C2376      C2387   1.413       .  A
C2377      C2962   1.382   1_554  A
C2377      H2389   1.083       .  S
C2378      C2961   1.379       .  A
C2378      H2390   1.082       .  S
C2379      C2964   1.381   1_554  A
C2379      H2391   1.081       .  S
C2380      C2963   1.381       .  A
C2380      H2392   1.081       .  S
C2381      C2382   1.376       .  A
C2381      H2393   1.076       .  S
C2382      H2394   1.082       .  S
C2383      C2384   1.366       .  A
C2383      H2395   1.071       .  S
C2384      H2396   1.079       .  S
C2385      C2566   1.533       .  S
C2386      C2551   1.546       .  S
C2387      C2437   1.505       .  S
C2388      C2428   1.518       .  S
C2399      C2400   1.538       .  S
C2399      C2405   1.532       .  S
C2399      C2403   1.562       .  S
C2399      C2890   1.558       .  S
C2400      H2407   1.076       .  S
C2400      C2401   1.364       .  D
C2401      C2504   1.502       .  S
C2401      C2402   1.539       .  S
C2402      C2406   1.512       .  S
C2402      C2404   1.564       .  S
C2402      H2408   1.086       .  S
C2403      H2409   1.084       .  S
C2403      C2404   1.389       .  D
C2404      C2535   1.549       .  S
C2405      H2410   1.086       .  S
C2405      C2406   1.354       .  D
C2406      C2778   1.466       .  S
C2411      C2412   1.528       .  S
C2411      C2417   1.506       .  S
C2411      C2415   1.561       .  S
C2411      C2845   1.556       .  S
C2412      H2419   1.069       .  S
C2412      C2413   1.381       .  D
C2413      C2536   1.549       .  S
C2413      C2414   1.590       .  S
C2414      C2418   1.555       .  S
C2414      C2416   1.541       .  S
C2414      H2420   1.090       .  S
C2415      H2421   1.076       .  S
C2415      C2416   1.371       .  D
C2416      C2503   1.520       .  S
C2417      H2422   1.090       .  S
C2417      C2418   1.350       .  D
C2418      C2765   1.498       .  S
C2423      C2424   1.558       .  S
C2423      C2429   1.528       .  S
C2423      C2427   1.536       .  S
C2423      C2813   1.547       .  S
C2424      H2431   1.076       .  S
C2424      C2425   1.379       .  D
C2425      C2652   1.540       .  S
C2425      C2426   1.562       .  S
C2426      C2430   1.551       .  S
C2426      C2428   1.558       .  S
C2426      H2432   1.109       .  S
C2427      H2433   1.086       .  S
C2427      C2428   1.368       .  D
C2429      H2434   1.081       .  S
C2429      C2430   1.345       .  D
C2430      C2746   1.480       .  S
C2435      C2436   1.532       .  S
C2435      C2441   1.529       .  S
C2435      C2439   1.596       .  S
C2435      C2858   1.575       .  S
C2436      H2443   1.076       .  S
C2436      C2437   1.358       .  D
C2437      C2438   1.547       .  S
C2438      C2442   1.525       .  S
C2438      C2440   1.548       .  S
C2438      H2444   1.075       .  S
C2439      H2445   1.081       .  S
C2439      C2440   1.415       .  D
C2440      C2651   1.579       .  S
C2441      H2446   1.084       .  S
C2441      C2442   1.341       .  D
C2442      C2730   1.484       .  S
N2447      H2479   1.040       .  S
N2447      C2452   1.347       .  A
N2447      C3035   1.355       .  A
N2448      C3623   1.335       .  A
N2448      C2456   1.332   1_565  A
N2449      H2480   1.041       .  S
N2449      C2454   1.354       .  A
N2449      C3037   1.348       .  A
N2450      C3625   1.339   1_545  A
N2450      C2458   1.334       .  A
C2451      N3031   1.356       .  A
C2451      C2459   1.394       .  A
C2451      C2467   1.427       .  A
C2452      C2468   1.413   1_556  A
C2452      C2460   1.386       .  A
C2453      N3033   1.348       .  A
C2453      C2461   1.386       .  A
C2453      C2470   1.404       .  A
C2454      C2469   1.418   1_556  A
C2454      C2462   1.389       .  A
C2455      N3616   1.335       .  A
C2455      C2467   1.372       .  A
C2455      C2463   1.382       .  A
C2456      C2470   1.379       .  A
C2456      C2464   1.386       .  A
C2457      N3618   1.340       .  A
C2457      C2465   1.384       .  A
C2457      C2468   1.407       .  A
C2458      C2466   1.389       .  A
C2458      C2469   1.405       .  A
C2459      C3044   1.369       .  A
C2459      H2471   1.081       .  S
C2460      C3043   1.371       .  A
C2460      H2472   1.083       .  S
C2461      C3046   1.369       .  A
C2461      H2473   1.082       .  S
C2462      C3045   1.368       .  A
C2462      H2474   1.082   1_556  S
C2463      C3632   1.373       .  A
C2463      H2475   1.081       .  S
C2464      C3631   1.371       .  A
C2464      H2476   1.082       .  S
C2465      C3634   1.389       .  A
C2465      H2477   1.082       .  S
C2466      C3633   1.390       .  A
C2466      H2478   1.082       .  S
C2467      C2781   1.482       .  S
C2468      C2762   1.495       .  S
C2469      C2749   1.476       .  S
C2470      C2733   1.447       .  S
N2481      H2513   1.038       .  S
N2481      C2486   1.356       .  A
N2481      C3069   1.365   1_554  A
N2482      C2489   1.355       .  A
N2482      C2490   1.356       .  A
N2483      H2514   1.042       .  S
N2483      C2488   1.358       .  A
N2483      C3071   1.356   1_554  A
N2484      C2491   1.357       .  A
N2484      C2492   1.362       .  A
C2485      N3065   1.365       .  A
C2485      C2493   1.385       .  A
C2485      C2501   1.431       .  A
C2486      C2502   1.430       .  A
C2486      C2494   1.385       .  A
C2487      N3067   1.356       .  A
C2487      C2495   1.392       .  A
C2487      C2504   1.426       .  A
C2488      C2503   1.416       .  A
C2488      C2496   1.379       .  A
C2489      C2501   1.428       .  A
C2489      C2497   1.383       .  A
C2490      C2504   1.419       .  A
C2490      C2498   1.382       .  A
C2491      C2499   1.387       .  A
C2491      C2502   1.432       .  A
C2492      C2500   1.380       .  A
C2492      C2503   1.423       .  A
C2493      C3078   1.377       .  A
C2493      H2505   1.080       .  S
C2494      C3077   1.374   1_554  A
C2494      H2506   1.081       .  S
C2495      C3080   1.374       .  A
C2495      H2507   1.077       .  S
C2496      C3079   1.372   1_554  A
C2496      H2508   1.076       .  S
C2497      C2498   1.365       .  A
C2497      H2509   1.076       .  S
C2498      H2510   1.076       .  S
C2499      C2500   1.378       .  A
C2499      H2511   1.081       .  S
C2500      H2512   1.078       .  S
C2501      C2587   1.551       .  S
C2502      C2578   1.537       .  S
N2515      H2547   1.034       .  S
N2515      C2520   1.361       .  A
N2515      C2519   1.364       .  A
N2516      C2523   1.354       .  A
N2516      C2524   1.353       .  A
N2517      H2548   1.036       .  S
N2517      C2522   1.356       .  A
N2517      C2521   1.360       .  A
N2518      C2525   1.359       .  A
N2518      C2526   1.358       .  A
C2519      C2527   1.376       .  A
C2519      C2535   1.430       .  A
C2520      C2536   1.446       .  A
C2520      C2528   1.391       .  A
C2521      C2529   1.388       .  A
C2521      C2538   1.428       .  A
C2522      C2537   1.424       .  A
C2522      C2530   1.386       .  A
C2523      C2535   1.424       .  A
C2523      C2531   1.380       .  A
C2524      C2538   1.415       .  A
C2524      C2532   1.377       .  A
C2525      C2533   1.382       .  A
C2525      C2536   1.427       .  A
C2526      C2534   1.379       .  A
C2526      C2537   1.423       .  A
C2527      C2528   1.380       .  A
C2527      H2539   1.077       .  S
C2528      H2540   1.079       .  S
C2529      C2530   1.372       .  A
C2529      H2541   1.079       .  S
C2530      H2542   1.079       .  S
C2531      C2532   1.363       .  A
C2531      H2543   1.076       .  S
C2532      H2544   1.075       .  S
C2533      C2534   1.365       .  A
C2533      H2545   1.074       .  S
C2534      H2546   1.074       .  S
C2537      C2563   1.505       .  S
C2538      C2554   1.506       .  S
C2549      C2550   1.570       .  S
C2549      C2555   1.542       .  S
C2549      C2553   1.548       .  S
C2549      C2877   1.575       .  S
C2550      H2557   1.082       .  S
C2550      C2551   1.397       .  D
C2551      C2552   1.546       .  S
C2552      C2556   1.505       .  S
C2552      C2554   1.529       .  S
C2552      H2558   1.081       .  S
C2553      H2559   1.068       .  S
C2553      C2554   1.360       .  D
C2555      H2560   1.087       .  S
C2555      C2556   1.356       .  D
C2556      C2714   1.463       .  S
C2561      C2562   1.543       .  S
C2561      C2567   1.535       .  S
C2561      C2565   1.553       .  S
C2561      C2797   1.563       .  S
C2562      H2569   1.086       .  S
C2562      C2563   1.364       .  D
C2563      C2564   1.542       .  S
C2564      C2568   1.535       .  S
C2564      C2566   1.559       .  S
C2564      H2570   1.095       .  S
C2565      H2571   1.066       .  S
C2565      C2566   1.389       .  D
C2567      H2572   1.088       .  S
C2567      C2568   1.351       .  D
C2568      C2701   1.486       .  S
C2573      C2574   1.549       .  S
C2573      C2579   1.528       .  S
C2573      C2577   1.547       .  S
C2573      C2829   1.555       .  S
C2574      H2581   1.086       .  S
C2574      C2575   1.367       .  D
C2575      C2653   1.511       .  S
C2575      C2576   1.538       .  S
C2576      C2580   1.536       .  S
C2576      C2578   1.560       .  S
C2576      H2582   1.095       .  S
C2577      H2583   1.076       .  S
C2577      C2578   1.393       .  D
C2579      H2584   1.088       .  S
C2579      C2580   1.348       .  D
C2580      C2682   1.475       .  S
C2585      C2586   1.574       .  S
C2585      C2591   1.509       .  S
C2585      C2589   1.545       .  S
C2585      C2909   1.568       .  S
C2586      H2593   1.075       .  S
C2586      C2587   1.402       .  D
C2587      C2588   1.562       .  S
C2588      C2592   1.551       .  S
C2588      C2590   1.551       .  S
C2588      H2594   1.094       .  S
C2589      H2595   1.078       .  S
C2589      C2590   1.365       .  D
C2590      C2654   1.525       .  S
C2591      H2596   1.076       .  S
C2591      C2592   1.336       .  D
C2592      C2666   1.497       .  S
N2597      H2629   1.042       .  S
N2597      C2602   1.347       .  A
N2597      C2601   1.352       .  A
N2598      C2605   1.347       .  A
N2599      H2630   1.042       .  S
N2599      C2604   1.351       .  A
N2599      C2603   1.352       .  A
N2600      C2607   1.343       .  A
C2601      C2609   1.387       .  A
C2601      C2617   1.421       .  A
C2602      C2618   1.413       .  A
C2602      C2610   1.384       .  A
C2603      C2611   1.387       .  A
C2603      C2620   1.408       .  A
C2604      C2619   1.412       .  A
C2604      C2612   1.384       .  A
C2605      C2617   1.410       .  A
C2605      C2613   1.392       .  A
C2606      C2620   1.391       .  A
C2606      C2614   1.380       .  A
C2607      C2615   1.389       .  A
C2607      C2618   1.404       .  A
C2608      C2616   1.379       .  A
C2608      C2619   1.388       .  A
C2609      C2610   1.386       .  A
C2609      H2621   1.078       .  S
C2610      H2622   1.080       .  S
C2611      C2612   1.372       .  A
C2611      H2623   1.083       .  S
C2612      H2624   1.082       .  S
C2613      H2625   1.082       .  S
C2614      H2626   1.083       .  S
C2615      H2627   1.082       .  S
C2616      H2628   1.082       .  S
C2617      C2717   1.511       .  S
C2618      C2698   1.487       .  S
C2619      C2685   1.475       .  S
C2620      C2669   1.478       .  S
N2631      H2663   1.041       .  S
N2631      C2636   1.364       .  A
N2631      C2635   1.365       .  A
N2632      C2639   1.371       .  A
N2632      C2640   1.373       .  A
N2633      H2664   1.041       .  S
N2633      C2638   1.356       .  A
N2633      C2637   1.351       .  A
N2634      C2641   1.356       .  A
N2634      C2642   1.363       .  A
C2635      C2643   1.389       .  A
C2635      C2651   1.439       .  A
C2636      C2652   1.434       .  A
C2636      C2644   1.386       .  A
C2637      C2645   1.384       .  A
C2637      C2654   1.407       .  A
C2638      C2653   1.411       .  A
C2638      C2646   1.379       .  A
C2639      C2651   1.469       .  A
C2639      C2647   1.392       .  A
C2640      C2654   1.438       .  A
C2640      C2648   1.370       .  A
C2641      C2649   1.379       .  A
C2641      C2652   1.428       .  A
C2642      C2650   1.375       .  A
C2642      C2653   1.410       .  A
C2643      C2644   1.382       .  A
C2643      H2655   1.082       .  S
C2644      H2656   1.082       .  S
C2645      C2646   1.372       .  A
C2645      H2657   1.080       .  S
C2646      H2658   1.071       .  S
C2647      C2648   1.374       .  A
C2647      H2659   1.072       .  S
C2648      H2660   1.079       .  S
C2649      C2650   1.368       .  A
C2649      H2661   1.056       .  S
C2650      H2662   1.082       .  S
C2665      C2666   1.406       .  A
C2665      C2670   1.401       .  A
C2665      H2672   1.077       .  S
C2666      C2667   1.432       .  A
C2667      C2668   1.405       .  A
C2667      C2674   1.526       .  S
C2668      C2669   1.397       .  A
C2668      H2673   1.083       .  S
C2669      C2670   1.401       .  A
C2670      C2671   1.508       .  S
C2671      F2675   1.375       .  S
C2671      F2676   1.383       .  S
C2671      F2677   1.381       .  S
C2674      F2678   1.382       .  S
C2674      F2679   1.382       .  S
C2674      F2680   1.383       .  S
C2681      C2682   1.399       .  A
C2681      C2686   1.402       .  A
C2681      H2688   1.082       .  S
C2682      C2683   1.417       .  A
C2683      C2684   1.395       .  A
C2683      C2690   1.511       .  S
C2684      C2685   1.397       .  A
C2684      H2689   1.086       .  S
C2685      C2686   1.403       .  A
C2686      C2687   1.495       .  S
C2687      F2691   1.378       .  S
C2687      F2692   1.382       .  S
C2687      F2693   1.382       .  S
C2690      F2694   1.382       .  S
C2690      F2695   1.376       .  S
C2690      F2696   1.378       .  S
C2697      C2698   1.398       .  A
C2697      C2702   1.407       .  A
C2697      H2704   1.085       .  S
C2698      C2699   1.424       .  A
C2699      C2700   1.403       .  A
C2699      C2706   1.523       .  S
C2700      C2701   1.400       .  A
C2700      H2705   1.084       .  S
C2701      C2702   1.421       .  A
C2702      C2703   1.510       .  S
C2703      F2707   1.384       .  S
C2703      F2708   1.375       .  S
C2703      F2709   1.374       .  S
C2706      F2710   1.371       .  S
C2706      F2711   1.381       .  S
C2706      F2712   1.384       .  S
C2713      C2714   1.402       .  A
C2713      C2718   1.400       .  A
C2713      H2720   1.085       .  S
C2714      C2715   1.400       .  A
C2715      C2716   1.392       .  A
C2715      C2722   1.523       .  S
C2716      C2717   1.418       .  A
C2716      H2721   1.064       .  S
C2717      C2718   1.423       .  A
C2718      C2719   1.518       .  S
C2719      F2723   1.383       .  S
C2719      F2724   1.378       .  S
C2719      F2725   1.383       .  S
C2722      F2726   1.380       .  S
C2722      F2727   1.378       .  S
C2722      F2728   1.384       .  S
C2729      C2730   1.404       .  A
C2729      C2734   1.392       .  A
C2729      H2736   1.081       .  S
C2730      C2731   1.442       .  A
C2731      C2732   1.388       .  A
C2731      C2738   1.519       .  S
C2732      C2733   1.377       .  A
C2732      H2737   1.085       .  S
C2733      C2734   1.402       .  A
C2734      C2735   1.514       .  S
C2735      F2739   1.374       .  S
C2735      F2740   1.377       .  S
C2735      F2741   1.382       .  S
C2738      F2742   1.387       .  S
C2738      F2743   1.371       .  S
C2738      F2744   1.377       .  S
C2745      C2746   1.390       .  A
C2745      C2750   1.392       .  A
C2745      H2752   1.085       .  S
C2746      C2747   1.434       .  A
C2747      C2748   1.405       .  A
C2747      C2754   1.523       .  S
C2748      C2749   1.395       .  A
C2748      H2753   1.084       .  S
C2749      C2750   1.416       .  A
C2750      C2751   1.504       .  S
C2751      F2755   1.383       .  S
C2751      F2756   1.378   1_554  S
C2751      F2757   1.382       .  S
C2754      F2758   1.382       .  S
C2754      F2759   1.382       .  S
C2754      F2760   1.385       .  S
C2761      C2762   1.416       .  A
C2761      C2766   1.411       .  A
C2761      H2768   1.082       .  S
C2762      C2763   1.415       .  A
C2763      C2764   1.400       .  A
C2763      C2770   1.526       .  S
C2764      C2765   1.413       .  A
C2764      H2769   1.078       .  S
C2765      C2766   1.408       .  A
C2766      C2767   1.515       .  S
C2767      F2771   1.384       .  S
C2767      F2772   1.383       .  S
C2767      F2773   1.382       .  S
C2770      F2774   1.383       .  S
C2770      F2775   1.381   1_554  S
C2770      F2776   1.386       .  S
C2777      C2778   1.403       .  A
C2777      C2782   1.391       .  A
C2777      H2784   1.074       .  S
C2778      C2779   1.405       .  A
C2779      C2780   1.402       .  A
C2779      C2786   1.513       .  S
C2780      C2781   1.405       .  A
C2780      H2785   1.083       .  S
C2781      C2782   1.414       .  A
C2782      C2783   1.522       .  S
C2783      F2787   1.385       .  S
C2783      F2788   1.380       .  S
C2783      F2789   1.382       .  S
C2786      F2790   1.383       .  S
C2786      F2791   1.382       .  S
C2786      F2792   1.383       .  S
C2793      C2794   1.412       .  A
C2793      C2798   1.421       .  A
C2793      H2800   1.083       .  S
C2794      C2795   1.422       .  A
C2795      C2796   1.405       .  A
C2795      C2802   1.524       .  S
C2796      C2797   1.416       .  A
C2796      H2801   1.081       .  S
C2797      C2798   1.430       .  A
C2798      C2799   1.516       .  S
C2799      F2803   1.385       .  S
C2799      F2804   1.382       .  S
C2799      F2805   1.384       .  S
C2802      F2806   1.384       .  S
C2802      F2807   1.383       .  S
C2802      F2808   1.385       .  S
C2809      C2810   1.414       .  A
C2809      C2814   1.410       .  A
C2809      H2816   1.084       .  S
C2810      C2811   1.427       .  A
C2811      C2812   1.410       .  A
C2811      C2818   1.521       .  S
C2812      C2813   1.411       .  A
C2812      H2817   1.083       .  S
C2813      C2814   1.414       .  A
C2814      C2815   1.511       .  S
C2815      F2819   1.384       .  S
C2815      F2820   1.383       .  S
C2815      F2821   1.383       .  S
C2818      F2822   1.384       .  S
C2818      F2823   1.383       .  S
C2818      F2824   1.385       .  S
C2825      C2826   1.416       .  A
C2825      C2830   1.419       .  A
C2825      H2832   1.084       .  S
C2826      C2827   1.428       .  A
C2827      C2828   1.407       .  A
C2827      C2834   1.524       .  S
C2828      C2829   1.410       .  A
C2828      H2833   1.081       .  S
C2829      C2830   1.420       .  A
C2830      C2831   1.515       .  S
C2831      F2835   1.384       .  S
C2831      F2836   1.383       .  S
C2831      F2837   1.383       .  S
C2834      F2838   1.384       .  S
C2834      F2839   1.383       .  S
C2834      F2840   1.385       .  S
C2841      C2842   1.396       .  A
C2841      C2846   1.407       .  A
C2841      H2848   1.082       .  S
C2842      C2843   1.410       .  A
C2843      C2844   1.412       .  A
C2843      C2850   1.519       .  S
C2844      C2845   1.420       .  A
C2844      H2849   1.073       .  S
C2845      C2846   1.440       .  A
C2846      C2847   1.529       .  S
C2847      F2851   1.381       .  S
C2847      F2852   1.381       .  S
C2847      F2853   1.385       .  S
C2850      F2854   1.384   1_655  S
C2850      F2855   1.383       .  S
C2850      F2856   1.385       .  S
C2857      C2858   1.414       .  A
C2857      C2862   1.424       .  A
C2857      H2864   1.078       .  S
C2858      C2859   1.442       .  A
C2859      C2860   1.418       .  A
C2859      C2866   1.515       .  S
C2860      C2861   1.398       .  A
C2860      H2865   1.083       .  S
C2861      C2862   1.430       .  A
C2862      C2863   1.522       .  S
C2863      F2867   1.384       .  S
C2863      F2868   1.383       .  S
C2863      F2869   1.384       .  S
C2866      F2870   1.381       .  S
C2866      F2871   1.380       .  S
C2866      F2872   1.386       .  S
C2873      C2874   1.400       .  A
C2873      C2878   1.422       .  A
C2873      H2880   1.083       .  S
C2874      C2875   1.430       .  A
C2875      C2876   1.412       .  A
C2875      C2882   1.521       .  S
C2876      C2877   1.412       .  A
C2876      H2881   1.084       .  S
C2877      C2878   1.442       .  A
C2878      C2879   1.517       .  S
C2879      F2883   1.386       .  S
C2879      F2884   1.382       .  S
C2879      F2885   1.384       .  S
C2882      F2886   1.385       .  S
C2882      F2887   1.373       .  S
C2882      F2888   1.384       .  S
C2889      C2890   1.417       .  A
C2889      C2894   1.417       .  A
C2889      H2896   1.076       .  S
C2890      C2891   1.437       .  A
C2891      C2892   1.404       .  A
C2891      C2898   1.521       .  S
C2892      C2893   1.395       .  A
C2892      H2897   1.087       .  S
C2893      C2894   1.414       .  A
C2894      C2895   1.509       .  S
C2895      F2899   1.381       .  S
C2895      F2900   1.383   1_655  S
C2895      F2901   1.385       .  S
C2898      F2902   1.383       .  S
C2898      F2903   1.372       .  S
C2898      F2904   1.384       .  S
C2905      C2906   1.401       .  A
C2905      C2910   1.419       .  A
C2905      H2912   1.082       .  S
C2906      C2907   1.435       .  A
C2907      C2908   1.421       .  A
C2907      C2914   1.523       .  S
C2908      C2909   1.409       .  A
C2908      H2913   1.076       .  S
C2909      C2910   1.444       .  A
C2910      C2911   1.524       .  S
C2911      F2915   1.385       .  S
C2911      F2916   1.381       .  S
C2911      F2917   1.380       .  S
C2914      F2918   1.384       .  S
C2914      F2919   1.384       .  S
C2914      F2920   1.384       .  S
O2921      C2931   1.271       .  A
O2922      C2932   1.270       .  A
O2922     Cu2929   1.975       .  S
O2923      C2933   1.291       .  A
O2923     Cu4097   2.080   1_545  S
O2924      C2934   1.290       .  A
O2925      C2934   1.273       .  A
O2925     Cu4098   2.011       .  S
O2926      C2933   1.272       .  A
O2927      C2932   1.289       .  A
O2928      C2931   1.290       .  A
O2928     Cu2930   2.085       .  S
Cu2929     O4091   2.085       .  S
Cu2930     O4093   2.013   1_545  S
C2931      C3445   1.518       .  S
C2932      C3477   1.497       .  S
C2933      C3490   1.523       .  S
C2934      C3458   1.514       .  S
O2935      C2945   1.279       .  A
O2936      C2946   1.278       .  A
O2936     Cu4111   2.022   1_655  S
O2937      C2947   1.274       .  A
O2937     Cu2943   1.989   1_655  S
O2938      C2948   1.275       .  A
O2939      C2948   1.281       .  A
O2939     Cu4112   2.033   1_545  S
O2940      C2947   1.282       .  A
O2941      C2946   1.281       .  A
O2942      C2945   1.281       .  A
O2942     Cu2944   2.041       .  S
Cu2943     O4104   2.028   1_455  S
Cu2944     O4107   2.035       .  S
C2945      C3378   1.512       .  S
C2946      C3410   1.513       .  S
C2947      C3426   1.488       .  S
C2948      C3394   1.503       .  S
N2949      H2981   1.033       .  S
N2949      C2953   1.354       .  A
N2950      C2957   1.353       .  A
N2950      C2958   1.357       .  A
N2951      H2982   1.039       .  S
N2951      C2955   1.360       .  A
N2952      C2959   1.360       .  A
N2952      C2960   1.358       .  A
C2953      C2961   1.386       .  A
C2953      C2969   1.426       .  A
C2954      C2970   1.433       .  A
C2954      C2962   1.388       .  A
C2955      C2963   1.388       .  A
C2955      C2972   1.428       .  A
C2956      C2971   1.424       .  A
C2956      C2964   1.387       .  A
C2957      C2969   1.432       .  A
C2957      C2965   1.390       .  A
C2958      C2972   1.413       .  A
C2958      C2966   1.378       .  A
C2959      C2967   1.389       .  A
C2959      C2970   1.440       .  A
C2960      C2968   1.374       .  A
C2960      C2971   1.412       .  A
C2961      H2973   1.082       .  S
C2962      H2974   1.082       .  S
C2963      H2975   1.081       .  S
C2964      H2976   1.081       .  S
C2965      C2966   1.375       .  A
C2965      H2977   1.076       .  S
C2966      H2978   1.082       .  S
C2967      C2968   1.365       .  A
C2967      H2979   1.071       .  S
C2968      H2980   1.079       .  S
C2969      C3150   1.533       .  S
C2970      C3135   1.552       .  S
C2971      C3021   1.501       .  S
C2972      C3012   1.513       .  S
C2983      C2984   1.541       .  S
C2983      C2989   1.532       .  S
C2983      C2987   1.561       .  S
C2983      C3474   1.561       .  S
C2984      H2991   1.077       .  S
C2984      C2985   1.365       .  D
C2985      C3088   1.504       .  S
C2985      C2986   1.534       .  S
C2986      C2990   1.511       .  S
C2986      C2988   1.563       .  S
C2986      H2992   1.086       .  S
C2987      H2993   1.084       .  S
C2987      C2988   1.389       .  D
C2988      C3119   1.548       .  S
C2989      H2994   1.087       .  S
C2989      C2990   1.358       .  D
C2990      C3362   1.466       .  S
C2995      C2996   1.532       .  S
C2995      C3001   1.508       .  S
C2995      C2999   1.558       .  S
C2995      C3429   1.556       .  S
C2996      H3003   1.071       .  S
C2996      C2997   1.384       .  D
C2997      C3120   1.551       .  S
C2997      C2998   1.589       .  S
C2998      C3002   1.552       .  S
C2998      C3000   1.543       .  S
C2998      H3004   1.090       .  S
C2999      H3005   1.077       .  S
C2999      C3000   1.370       .  D
C3000      C3087   1.518       .  S
C3001      H3006   1.090       .  S
C3001      C3002   1.350       .  D
C3002      C3349   1.495       .  S
C3007      C3008   1.561       .  S
C3007      C3013   1.528       .  S
C3007      C3011   1.535       .  S
C3007      C3397   1.546       .  S
C3008      H3015   1.077       .  S
C3008      C3009   1.384       .  D
C3009      C3236   1.548       .  S
C3009      C3010   1.564       .  S
C3010      C3014   1.549       .  S
C3010      C3012   1.553       .  S
C3010      H3016   1.108       .  S
C3011      H3017   1.086       .  S
C3011      C3012   1.366       .  D
C3013      H3018   1.084       .  S
C3013      C3014   1.343       .  D
C3014      C3330   1.476       .  S
C3019      C3020   1.532       .  S
C3019      C3025   1.530       .  S
C3019      C3023   1.594       .  S
C3019      C3442   1.572       .  S
C3020      H3027   1.077       .  S
C3020      C3021   1.358       .  D
C3021      C3022   1.546       .  S
C3022      C3026   1.525       .  S
C3022      C3024   1.549       .  S
C3022      H3028   1.076       .  S
C3023      H3029   1.080       .  S
C3023      C3024   1.412       .  D
C3024      C3235   1.581       .  S
C3025      H3030   1.082       .  S
C3025      C3026   1.341       .  D
C3026      C3314   1.482       .  S
N3031      H3063   1.039       .  S
N3031      C3036   1.347       .  A
N3032      C4207   1.334       .  A
N3032      C3040   1.331   1_565  A
N3033      H3064   1.040       .  S
N3033      C3038   1.354       .  A
N3034      C4209   1.340       .  A
N3034      C3042   1.336       .  A
C3035      C3043   1.393       .  A
C3035      C3051   1.425       .  A
C3036      C3052   1.414       .  A
C3036      C3044   1.386       .  A
C3037      C3045   1.385       .  A
C3037      C3054   1.404       .  A
C3038      C3053   1.419       .  A
C3038      C3046   1.389       .  A
C3039      N4200   1.335       .  A
C3039      C3051   1.372       .  A
C3039      C3047   1.381       .  A
C3040      C3054   1.376       .  A
C3040      C3048   1.384       .  A
C3041      N4202   1.339       .  A
C3041      C3049   1.384       .  A
C3041      C3052   1.403       .  A
C3042      C3050   1.389       .  A
C3042      C3053   1.407       .  A
C3043      H3055   1.081       .  S
C3044      H3056   1.083       .  S
C3045      H3057   1.082       .  S
C3046      H3058   1.082       .  S
C3047      C4216   1.372       .  A
C3047      H3059   1.081       .  S
C3048      C4215   1.372       .  A
C3048      H3060   1.082       .  S
C3049      C4218   1.389       .  A
C3049      H3061   1.082       .  S
C3050      C4217   1.390       .  A
C3050      H3062   1.082       .  S
C3051      C3365   1.482       .  S
C3052      C3346   1.494       .  S
C3053      C3333   1.479       .  S
C3054      C3317   1.445       .  S
N3065      H3097   1.037       .  S
N3065      C3070   1.356       .  A
N3066      C3073   1.357       .  A
N3066      C3074   1.357       .  A
N3067      H3098   1.042       .  S
N3067      C3072   1.357       .  A
N3068      C3075   1.356       .  A
N3068      C3076   1.361       .  A
C3069      C3077   1.384       .  A
C3069      C3085   1.430       .  A
C3070      C3086   1.431       .  A
C3070      C3078   1.385       .  A
C3071      C3079   1.392       .  A
C3071      C3088   1.425       .  A
C3072      C3087   1.417       .  A
C3072      C3080   1.381       .  A
C3073      C3085   1.432       .  A
C3073      C3081   1.383       .  A
C3074      C3088   1.421       .  A
C3074      C3082   1.382       .  A
C3075      C3083   1.387       .  A
C3075      C3086   1.430       .  A
C3076      C3084   1.380       .  A
C3076      C3087   1.422       .  A
C3077      H3089   1.080       .  S
C3078      H3090   1.082       .  S
C3079      H3091   1.077       .  S
C3080      H3092   1.077       .  S
C3081      C3082   1.366       .  A
C3081      H3093   1.076       .  S
C3082      H3094   1.076       .  S
C3083      C3084   1.377       .  A
C3083      H3095   1.081       .  S
C3084      H3096   1.078       .  S
C3085      C3171   1.553       .  S
C3086      C3162   1.537       .  S
N3099      H3131   1.031       .  S
N3099      C3104   1.362       .  A
N3099      C3103   1.363       .  A
N3100      C3107   1.353       .  A
N3100      C3108   1.352       .  A
N3101      H3132   1.034       .  S
N3101      C3106   1.356       .  A
N3101      C3105   1.361       .  A
N3102      C3109   1.360       .  A
N3102      C3110   1.358       .  A
C3103      C3111   1.374       .  A
C3103      C3119   1.430       .  A
C3104      C3120   1.446       .  A
C3104      C3112   1.391       .  A
C3105      C3113   1.386       .  A
C3105      C3122   1.427       .  A
C3106      C3121   1.426       .  A
C3106      C3114   1.387       .  A
C3107      C3119   1.423       .  A
C3107      C3115   1.380       .  A
C3108      C3122   1.414       .  A
C3108      C3116   1.378       .  A
C3109      C3117   1.382       .  A
C3109      C3120   1.430       .  A
C3110      C3118   1.379       .  A
C3110      C3121   1.425       .  A
C3111      C3112   1.381       .  A
C3111      H3123   1.076       .  S
C3112      H3124   1.080       .  S
C3113      C3114   1.372       .  A
C3113      H3125   1.079       .  S
C3114      H3126   1.078       .  S
C3115      C3116   1.364       .  A
C3115      H3127   1.077       .  S
C3116      H3128   1.075       .  S
C3117      C3118   1.367       .  A
C3117      H3129   1.074       .  S
C3118      H3130   1.074       .  S
C3121      C3147   1.506       .  S
C3122      C3138   1.506       .  S
C3133      C3134   1.576       .  S
C3133      C3139   1.543       .  S
C3133      C3137   1.549       .  S
C3133      C3461   1.580       .  S
C3134      H3141   1.083       .  S
C3134      C3135   1.398       .  D
C3135      C3136   1.549       .  S
C3136      C3140   1.506       .  S
C3136      C3138   1.528       .  S
C3136      H3142   1.079       .  S
C3137      H3143   1.069       .  S
C3137      C3138   1.361       .  D
C3139      H3144   1.087       .  S
C3139      C3140   1.358       .  D
C3140      C3298   1.468       .  S
C3145      C3146   1.537       .  S
C3145      C3151   1.533       .  S
C3145      C3149   1.556       .  S
C3145      C3381   1.561       .  S
C3146      H3153   1.087       .  S
C3146      C3147   1.362       .  D
C3147      C3148   1.542       .  S
C3148      C3152   1.531       .  S
C3148      C3150   1.557       .  S
C3148      H3154   1.094       .  S
C3149      H3155   1.074       .  S
C3149      C3150   1.397       .  D
C3151      H3156   1.088       .  S
C3151      C3152   1.350       .  D
C3152      C3285   1.478       .  S
C3157      C3158   1.552       .  S
C3157      C3163   1.527       .  S
C3157      C3161   1.550       .  S
C3157      C3413   1.559       .  S
C3158      H3165   1.086       .  S
C3158      C3159   1.370       .  D
C3159      C3237   1.513       .  S
C3159      C3160   1.536       .  S
C3160      C3164   1.535       .  S
C3160      C3162   1.559       .  S
C3160      H3166   1.095       .  S
C3161      H3167   1.073       .  S
C3161      C3162   1.390       .  D
C3163      H3168   1.088       .  S
C3163      C3164   1.349       .  D
C3164      C3266   1.473       .  S
C3169      C3170   1.574       .  S
C3169      C3175   1.509       .  S
C3169      C3173   1.545       .  S
C3169      C3493   1.566       .  S
C3170      H3177   1.075       .  S
C3170      C3171   1.403       .  D
C3171      C3172   1.561       .  S
C3172      C3176   1.553       .  S
C3172      C3174   1.551       .  S
C3172      H3178   1.093       .  S
C3173      H3179   1.079       .  S
C3173      C3174   1.365       .  D
C3174      C3238   1.528       .  S
C3175      H3180   1.079       .  S
C3175      C3176   1.336       .  D
C3176      C3250   1.494       .  S
N3181      H3213   1.042       .  S
N3181      C3186   1.345       .  A
N3181      C3185   1.354       .  A
N3182      C3189   1.347       .  A
N3183      H3214   1.042       .  S
N3183      C3188   1.351       .  A
N3183      C3187   1.353       .  A
N3184      C3191   1.341       .  A
C3185      C3193   1.386       .  A
C3185      C3201   1.420       .  A
C3186      C3202   1.410       .  A
C3186      C3194   1.384       .  A
C3187      C3195   1.388       .  A
C3187      C3204   1.408       .  A
C3188      C3203   1.412       .  A
C3188      C3196   1.383       .  A
C3189      C3201   1.411       .  A
C3189      C3197   1.392       .  A
C3190      C3204   1.391       .  A
C3190      C3198   1.380       .  A
C3191      C3199   1.391       .  A
C3191      C3202   1.404       .  A
C3192      C3200   1.380       .  A
C3192      C3203   1.386       .  A
C3193      C3194   1.384       .  A
C3193      H3205   1.080       .  S
C3194      H3206   1.080       .  S
C3195      C3196   1.370       .  A
C3195      H3207   1.083       .  S
C3196      H3208   1.082       .  S
C3197      H3209   1.082       .  S
C3198      H3210   1.083       .  S
C3199      H3211   1.082       .  S
C3200      H3212   1.081       .  S
C3201      C3301   1.514       .  S
C3202      C3282   1.479       .  S
C3203      C3269   1.474       .  S
C3204      C3253   1.478       .  S
N3215      H3247   1.041       .  S
N3215      C3220   1.366       .  A
N3215      C3219   1.367       .  A
N3216      C3223   1.372       .  A
N3216      C3224   1.374       .  A
N3217      H3248   1.041       .  S
N3217      C3222   1.355       .  A
N3217      C3221   1.351       .  A
N3218      C3225   1.359       .  A
N3218      C3226   1.366       .  A
C3219      C3227   1.389       .  A
C3219      C3235   1.441       .  A
C3220      C3236   1.438       .  A
C3220      C3228   1.386       .  A
C3221      C3229   1.383       .  A
C3221      C3238   1.405       .  A
C3222      C3237   1.409       .  A
C3222      C3230   1.378       .  A
C3223      C3235   1.469       .  A
C3223      C3231   1.392       .  A
C3224      C3238   1.438       .  A
C3224      C3232   1.370       .  A
C3225      C3233   1.380       .  A
C3225      C3236   1.436       .  A
C3226      C3234   1.371       .  A
C3226      C3237   1.411       .  A
C3227      C3228   1.381       .  A
C3227      H3239   1.082       .  S
C3228      H3240   1.082       .  S
C3229      C3230   1.370       .  A
C3229      H3241   1.080       .  S
C3230      H3242   1.070       .  S
C3231      C3232   1.375       .  A
C3231      H3243   1.073       .  S
C3232      H3244   1.079       .  S
C3233      C3234   1.364       .  A
C3233      H3245   1.049       .  S
C3234      H3246   1.083       .  S
C3249      C3250   1.403       .  A
C3249      C3254   1.397       .  A
C3249      H3256   1.075       .  S
C3250      C3251   1.431       .  A
C3251      C3252   1.405       .  A
C3251      C3258   1.526       .  S
C3252      C3253   1.398       .  A
C3252      H3257   1.083       .  S
C3253      C3254   1.401       .  A
C3254      C3255   1.504       .  S
C3255      F3259   1.372       .  S
C3255      F3260   1.383       .  S
C3255      F3261   1.382       .  S
C3258      F3262   1.381       .  S
C3258      F3263   1.382       .  S
C3258      F3264   1.384       .  S
C3265      C3266   1.398       .  A
C3265      C3270   1.401       .  A
C3265      H3272   1.082       .  S
C3266      C3267   1.417       .  A
C3267      C3268   1.395       .  A
C3267      C3274   1.511       .  S
C3268      C3269   1.398       .  A
C3268      H3273   1.086       .  S
C3269      C3270   1.403       .  A
C3270      C3271   1.496       .  S
C3271      F3275   1.377       .  S
C3271      F3276   1.382       .  S
C3271      F3277   1.382       .  S
C3274      F3278   1.382       .  S
C3274      F3279   1.376       .  S
C3274      F3280   1.378       .  S
C3281      C3282   1.396       .  A
C3281      C3286   1.403       .  A
C3281      H3288   1.085       .  S
C3282      C3283   1.424       .  A
C3283      C3284   1.399       .  A
C3283      C3290   1.524       .  S
C3284      C3285   1.398       .  A
C3284      H3289   1.084       .  S
C3285      C3286   1.421       .  A
C3286      C3287   1.511       .  S
C3287      F3291   1.384       .  S
C3287      F3292   1.377       .  S
C3287      F3293   1.374       .  S
C3290      F3294   1.368       .  S
C3290      F3295   1.381       .  S
C3290      F3296   1.385       .  S
C3297      C3298   1.402       .  A
C3297      C3302   1.400       .  A
C3297      H3304   1.085       .  S
C3298      C3299   1.405       .  A
C3299      C3300   1.396       .  A
C3299      C3306   1.522       .  S
C3300      C3301   1.418       .  A
C3300      H3305   1.066       .  S
C3301      C3302   1.420       .  A
C3302      C3303   1.515       .  S
C3303      F3307   1.383       .  S
C3303      F3308   1.380       .  S
C3303      F3309   1.383       .  S
C3306      F3310   1.380       .  S
C3306      F3311   1.378       .  S
C3306      F3312   1.385       .  S
C3313      C3314   1.406       .  A
C3313      C3318   1.390       .  A
C3313      H3320   1.081       .  S
C3314      C3315   1.444       .  A
C3315      C3316   1.390       .  A
C3315      C3322   1.522       .  S
C3316      C3317   1.378       .  A
C3316      H3321   1.085       .  S
C3317      C3318   1.398       .  A
C3318      C3319   1.512       .  S
C3319      F3323   1.371       .  S
C3319      F3324   1.378       .  S
C3319      F3325   1.383       .  S
C3322      F3326   1.386       .  S
C3322      F3327   1.371       .  S
C3322      F3328   1.379       .  S
C3329      C3330   1.390       .  A
C3329      C3334   1.393       .  A
C3329      H3336   1.086       .  S
C3330      C3331   1.431       .  A
C3331      C3332   1.404       .  A
C3331      C3338   1.522       .  S
C3332      C3333   1.395       .  A
C3332      H3337   1.084       .  S
C3333      C3334   1.418       .  A
C3334      C3335   1.504       .  S
C3335      F3339   1.383       .  S
C3335      F3340   1.378       .  S
C3335      F3341   1.381       .  S
C3338      F3342   1.381       .  S
C3338      F3343   1.382       .  S
C3338      F3344   1.385       .  S
C3345      C3346   1.416       .  A
C3345      C3350   1.410       .  A
C3345      H3352   1.082       .  S
C3346      C3347   1.415       .  A
C3347      C3348   1.399       .  A
C3347      C3354   1.525       .  S
C3348      C3349   1.412       .  A
C3348      H3353   1.079       .  S
C3349      C3350   1.408       .  A
C3350      C3351   1.513       .  S
C3351      F3355   1.384       .  S
C3351      F3356   1.383       .  S
C3351      F3357   1.382       .  S
C3354      F3358   1.383       .  S
C3354      F3359   1.382       .  S
C3354      F3360   1.385       .  S
C3361      C3362   1.399       .  A
C3361      C3366   1.390       .  A
C3361      H3368   1.074       .  S
C3362      C3363   1.403       .  A
C3363      C3364   1.400       .  A
C3363      C3370   1.509       .  S
C3364      C3365   1.408       .  A
C3364      H3369   1.084       .  S
C3365      C3366   1.415       .  A
C3366      C3367   1.520       .  S
C3367      F3371   1.385       .  S
C3367      F3372   1.380       .  S
C3367      F3373   1.383       .  S
C3370      F3374   1.381       .  S
C3370      F3375   1.384       .  S
C3370      F3376   1.384       .  S
C3377      C3378   1.415       .  A
C3377      C3382   1.422       .  A
C3377      H3384   1.083       .  S
C3378      C3379   1.424       .  A
C3379      C3380   1.406       .  A
C3379      C3386   1.525       .  S
C3380      C3381   1.415       .  A
C3380      H3385   1.081       .  S
C3381      C3382   1.423       .  A
C3382      C3383   1.514       .  S
C3383      F3387   1.385       .  S
C3383      F3388   1.382       .  S
C3383      F3389   1.384       .  S
C3386      F3390   1.384       .  S
C3386      F3391   1.383       .  S
C3386      F3392   1.386       .  S
C3393      C3394   1.415       .  A
C3393      C3398   1.408       .  A
C3393      H3400   1.084       .  S
C3394      C3395   1.425       .  A
C3395      C3396   1.410       .  A
C3395      C3402   1.521       .  S
C3396      C3397   1.413       .  A
C3396      H3401   1.082       .  S
C3397      C3398   1.412       .  A
C3398      C3399   1.510       .  S
C3399      F3403   1.384       .  S
C3399      F3404   1.382       .  S
C3399      F3405   1.383       .  S
C3402      F3406   1.384       .  S
C3402      F3407   1.383       .  S
C3402      F3408   1.385       .  S
C3409      C3410   1.413       .  A
C3409      C3414   1.417       .  A
C3409      H3416   1.084       .  S
C3410      C3411   1.427       .  A
C3411      C3412   1.411       .  A
C3411      C3418   1.523       .  S
C3412      C3413   1.412       .  A
C3412      H3417   1.081       .  S
C3413      C3414   1.422       .  A
C3414      C3415   1.514       .  S
C3415      F3419   1.385       .  S
C3415      F3420   1.383       .  S
C3415      F3421   1.383       .  S
C3418      F3422   1.383       .  S
C3418      F3423   1.384       .  S
C3418      F3424   1.383       .  S
C3425      C3426   1.398       .  A
C3425      C3430   1.408       .  A
C3425      H3432   1.082       .  S
C3426      C3427   1.410       .  A
C3427      C3428   1.412       .  A
C3427      C3434   1.519       .  S
C3428      C3429   1.420       .  A
C3428      H3433   1.073       .  S
C3429      C3430   1.438       .  A
C3430      C3431   1.527       .  S
C3431      F3435   1.382       .  S
C3431      F3436   1.381       .  S
C3431      F3437   1.385       .  S
C3434      F3438   1.384   1_655  S
C3434      F3439   1.382       .  S
C3434      F3440   1.385       .  S
C3441      C3442   1.414       .  A
C3441      C3446   1.423       .  A
C3441      H3448   1.077       .  S
C3442      C3443   1.440       .  A
C3443      C3444   1.417       .  A
C3443      C3450   1.515       .  S
C3444      C3445   1.398       .  A
C3444      H3449   1.083       .  S
C3445      C3446   1.429       .  A
C3446      C3447   1.522       .  S
C3447      F3451   1.384       .  S
C3447      F3452   1.383       .  S
C3447      F3453   1.384       .  S
C3450      F3454   1.382       .  S
C3450      F3455   1.380       .  S
C3450      F3456   1.386       .  S
C3457      C3458   1.400       .  A
C3457      C3462   1.423       .  A
C3457      H3464   1.083       .  S
C3458      C3459   1.430       .  A
C3459      C3460   1.415       .  A
C3459      C3466   1.521       .  S
C3460      C3461   1.412       .  A
C3460      H3465   1.083       .  S
C3461      C3462   1.445       .  A
C3462      C3463   1.519       .  S
C3463      F3467   1.386       .  S
C3463      F3468   1.380       .  S
C3463      F3469   1.384       .  S
C3466      F3470   1.384       .  S
C3466      F3471   1.372       .  S
C3466      F3472   1.383       .  S
C3473      C3474   1.418       .  A
C3473      C3478   1.415       .  A
C3473      H3480   1.073       .  S
C3474      C3475   1.439       .  A
C3475      C3476   1.409       .  A
C3475      C3482   1.523       .  S
C3476      C3477   1.398       .  A
C3476      H3481   1.086       .  S
C3477      C3478   1.410       .  A
C3478      C3479   1.508       .  S
C3479      F3483   1.382       .  S
C3479      F3484   1.382   1_655  S
C3479      F3485   1.384       .  S
C3482      F3486   1.383       .  S
C3482      F3487   1.371       .  S
C3482      F3488   1.383       .  S
C3489      C3490   1.400       .  A
C3489      C3494   1.415       .  A
C3489      H3496   1.082       .  S
C3490      C3491   1.434       .  A
C3491      C3492   1.423       .  A
C3491      C3498   1.521       .  S
C3492      C3493   1.411       .  A
C3492      H3497   1.077       .  S
C3493      C3494   1.442       .  A
C3494      C3495   1.524       .  S
C3495      F3499   1.383       .  S
C3495      F3500   1.381       .  S
C3495      F3501   1.380       .  S
C3498      F3502   1.383       .  S
C3498      F3503   1.384       .  S
C3498      F3504   1.385       .  S
O3505      C3515   1.271       .  A
O3506      C3516   1.270       .  A
O3506     Cu3513   1.978       .  S
O3507      C3517   1.291       .  A
O3508      C3518   1.290       .  A
O3509      C3518   1.275       .  A
O3510      C3517   1.271       .  A
O3511      C3516   1.288       .  A
O3512      C3515   1.292       .  A
O3512     Cu3514   2.092       .  S
C3515      C4029   1.520       .  S
C3516      C4061   1.493       .  S
C3517      C4074   1.523       .  S
C3518      C4042   1.517       .  S
O3519      C3529   1.278       .  A
O3520      C3530   1.280       .  A
O3521      C3531   1.276       .  A
O3521     Cu3527   2.004   1_665  S
O3522      C3532   1.275       .  A
O3523      C3532   1.281       .  A
O3524      C3531   1.281       .  A
O3525      C3530   1.280       .  A
O3526      C3529   1.281       .  A
O3526     Cu3528   2.038       .  S
C3529      C3962   1.514       .  S
C3530      C3994   1.516       .  S
C3531      C4010   1.488       .  S
C3532      C3978   1.503       .  S
N3533      H3565   1.035       .  S
N3533      C4122   1.365   1_554  A
N3533      C3537   1.357       .  A
N3534      C3541   1.354       .  A
N3534      C3542   1.360       .  A
N3535      H3566   1.040       .  S
N3535      C4124   1.354       .  A
N3535      C3539   1.361   1_556  A
N3536      C3543   1.361       .  A
N3536      C3544   1.359       .  A
C3537      C3545   1.387       .  A
C3537      C3553   1.432       .  A
C3538      N4117   1.362       .  A
C3538      C3554   1.430       .  A
C3538      C3546   1.387       .  A
C3539      C3547   1.387       .  A
C3539      C3556   1.426       .  A
C3540      N4119   1.357       .  A
C3540      C3555   1.424       .  A
C3540      C3548   1.387       .  A
C3541      C3553   1.434       .  A
C3541      C3549   1.391       .  A
C3542      C3556   1.415       .  A
C3542      C3550   1.377       .  A
C3543      C3551   1.391       .  A
C3543      C3554   1.443       .  A
C3544      C3552   1.374       .  A
C3544      C3555   1.414       .  A
C3545      C4130   1.381   1_554  A
C3545      H3557   1.083       .  S
C3546      C4129   1.380       .  A
C3546      H3558   1.082       .  S
C3547      C4132   1.379   1_554  A
C3547      H3559   1.081       .  S
C3548      C4131   1.380       .  A
C3548      H3560   1.080       .  S
C3549      C3550   1.375       .  A
C3549      H3561   1.075       .  S
C3550      H3562   1.082       .  S
C3551      C3552   1.366       .  A
C3551      H3563   1.071       .  S
C3552      H3564   1.080       .  S
C3553      C3734   1.538       .  S
C3554      C3719   1.554       .  S
C3555      C3605   1.505       .  S
C3556      C3596   1.520       .  S
C3567      C3568   1.539       .  S
C3567      C3573   1.531       .  S
C3567      C3571   1.562       .  S
C3567      C4058   1.557       .  S
C3568      H3575   1.077       .  S
C3568      C3569   1.363       .  D
C3569      C3672   1.497       .  S
C3569      C3570   1.534       .  S
C3570      C3574   1.512       .  S
C3570      C3572   1.565       .  S
C3570      H3576   1.086       .  S
C3571      H3577   1.085       .  S
C3571      C3572   1.388       .  D
C3572      C3703   1.548       .  S
C3573      H3578   1.088       .  S
C3573      C3574   1.355       .  D
C3574      C3946   1.464       .  S
C3579      C3580   1.532       .  S
C3579      C3585   1.507       .  S
C3579      C3583   1.558       .  S
C3579      C4013   1.558       .  S
C3580      H3587   1.070       .  S
C3580      C3581   1.383       .  D
C3581      C3704   1.549       .  S
C3581      C3582   1.586       .  S
C3582      C3586   1.551       .  S
C3582      C3584   1.545       .  S
C3582      H3588   1.092       .  S
C3583      H3589   1.078       .  S
C3583      C3584   1.373       .  D
C3584      C3671   1.518       .  S
C3585      H3590   1.090       .  S
C3585      C3586   1.350       .  D
C3586      C3933   1.493       .  S
C3591      C3592   1.557       .  S
C3591      C3597   1.532       .  S
C3591      C3595   1.536       .  S
C3591      C3981   1.546       .  S
C3592      H3599   1.077       .  S
C3592      C3593   1.381       .  D
C3593      C3820   1.544       .  S
C3593      C3594   1.568       .  S
C3594      C3598   1.554       .  S
C3594      C3596   1.559       .  S
C3594      H3600   1.108       .  S
C3595      H3601   1.086       .  S
C3595      C3596   1.367       .  D
C3597      H3602   1.084       .  S
C3597      C3598   1.346       .  D
C3598      C3914   1.487       .  S
C3603      C3604   1.533       .  S
C3603      C3609   1.529       .  S
C3603      C3607   1.596       .  S
C3603      C4026   1.574       .  S
C3604      H3611   1.077       .  S
C3604      C3605   1.359       .  D
C3605      C3606   1.546       .  S
C3606      C3610   1.524       .  S
C3606      C3608   1.548       .  S
C3606      H3612   1.076       .  S
C3607      H3613   1.081       .  S
C3607      C3608   1.414       .  D
C3608      C3819   1.579       .  S
C3609      H3614   1.083       .  S
C3609      C3610   1.339       .  D
C3610      C3898   1.482       .  S
N3615      H3647   1.040       .  S
N3615      C3620   1.348       .  A
N3615      C4203   1.356       .  A
N3616      C3624   1.332       .  A
N3617      H3648   1.040       .  S
N3617      C3622   1.354       .  A
N3617      C4205   1.348       .  A
N3618      C3626   1.339       .  A
C3619      N4199   1.355       .  A
C3619      C3627   1.395   1_565  A
C3619      C3635   1.428       .  A
C3620      C3636   1.413   1_556  A
C3620      C3628   1.386   1_565  A
C3621      N4201   1.348       .  A
C3621      C3629   1.386       .  A
C3621      C3638   1.406       .  A
C3622      C3637   1.418   1_556  A
C3622      C3630   1.388       .  A
C3623      C3635   1.372       .  A
C3623      C3631   1.382   1_565  A
C3624      C3638   1.379       .  A
C3624      C3632   1.386       .  A
C3625      C3633   1.385   1_565  A
C3625      C3636   1.405       .  A
C3626      C3634   1.388       .  A
C3626      C3637   1.409       .  A
C3627      C4212   1.369       .  A
C3627      H3639   1.081       .  S
C3628      C4211   1.370       .  A
C3628      H3640   1.083       .  S
C3629      C4214   1.370       .  A
C3629      H3641   1.082       .  S
C3630      C4213   1.370       .  A
C3630      H3642   1.082   1_556  S
C3631      H3643   1.081       .  S
C3632      H3644   1.082       .  S
C3633      H3645   1.082   1_545  S
C3634      H3646   1.082       .  S
C3635      C3949   1.488       .  S
C3636      C3930   1.495       .  S
C3637      C3917   1.485       .  S
C3638      C3901   1.447       .  S
N3649      H3681   1.038       .  S
N3649      C3654   1.359       .  A
N3649      C4237   1.366   1_554  A
N3650      C3657   1.356       .  A
N3650      C3658   1.355       .  A
N3651      H3682   1.042       .  S
N3651      C3656   1.358       .  A
N3651      C4239   1.356   1_554  A
N3652      C3659   1.356       .  A
N3652      C3660   1.362       .  A
C3653      N4233   1.367       .  A
C3653      C3661   1.384       .  A
C3653      C3669   1.431       .  A
C3654      C3670   1.433       .  A
C3654      C3662   1.385       .  A
C3655      N4235   1.354       .  A
C3655      C3663   1.392       .  A
C3655      C3672   1.425       .  A
C3656      C3671   1.415       .  A
C3656      C3664   1.379       .  A
C3657      C3669   1.429       .  A
C3657      C3665   1.383       .  A
C3658      C3672   1.418       .  A
C3658      C3666   1.382       .  A
C3659      C3667   1.388       .  A
C3659      C3670   1.432       .  A
C3660      C3668   1.380       .  A
C3660      C3671   1.420       .  A
C3661      C4246   1.376       .  A
C3661      H3673   1.079       .  S
C3662      C4245   1.376   1_554  A
C3662      H3674   1.081       .  S
C3663      C4248   1.372       .  A
C3663      H3675   1.078       .  S
C3664      C4247   1.372   1_554  A
C3664      H3676   1.077       .  S
C3665      C3666   1.365       .  A
C3665      H3677   1.076       .  S
C3666      H3678   1.077       .  S
C3667      C3668   1.378       .  A
C3667      H3679   1.082       .  S
C3668      H3680   1.079       .  S
C3669      C3755   1.554       .  S
C3670      C3746   1.541       .  S
N3683      H3715   1.037       .  S
N3683      C3688   1.360       .  A
N3683      C3687   1.365       .  A
N3684      C3691   1.354       .  A
N3684      C3692   1.353       .  A
N3685      H3716   1.037       .  S
N3685      C3690   1.357       .  A
N3685      C3689   1.361       .  A
N3686      C3693   1.361       .  A
N3686      C3694   1.360       .  A
C3687      C3695   1.379       .  A
C3687      C3703   1.429       .  A
C3688      C3704   1.442       .  A
C3688      C3696   1.391       .  A
C3689      C3697   1.386       .  A
C3689      C3706   1.428       .  A
C3690      C3705   1.427       .  A
C3690      C3698   1.387       .  A
C3691      C3703   1.422       .  A
C3691      C3699   1.379       .  A
C3692      C3706   1.415       .  A
C3692      C3700   1.378       .  A
C3693      C3701   1.383       .  A
C3693      C3704   1.430       .  A
C3694      C3702   1.380       .  A
C3694      C3705   1.427       .  A
C3695      C3696   1.381       .  A
C3695      H3707   1.080       .  S
C3696      H3708   1.079       .  S
C3697      C3698   1.373       .  A
C3697      H3709   1.079       .  S
C3698      H3710   1.078       .  S
C3699      C3700   1.362       .  A
C3699      H3711   1.077       .  S
C3700      H3712   1.075       .  S
C3701      C3702   1.369       .  A
C3701      H3713   1.075       .  S
C3702      H3714   1.075       .  S
C3705      C3731   1.511       .  S
C3706      C3722   1.508       .  S
C3717      C3718   1.578       .  S
C3717      C3723   1.541       .  S
C3717      C3721   1.551       .  S
C3717      C4045   1.582       .  S
C3718      H3725   1.083       .  S
C3718      C3719   1.400       .  D
C3719      C3720   1.546       .  S
C3720      C3724   1.504       .  S
C3720      C3722   1.529       .  S
C3720      H3726   1.080       .  S
C3721      H3727   1.069       .  S
C3721      C3722   1.362       .  D
C3723      H3728   1.087       .  S
C3723      C3724   1.356       .  D
C3724      C3882   1.462       .  S
C3729      C3730   1.544       .  S
C3729      C3735   1.534       .  S
C3729      C3733   1.558       .  S
C3729      C3965   1.571       .  S
C3730      H3737   1.086       .  S
C3730      C3731   1.366       .  D
C3731      C3732   1.545       .  S
C3732      C3736   1.535       .  S
C3732      C3734   1.558       .  S
C3732      H3738   1.094       .  S
C3733      H3739   1.068       .  S
C3733      C3734   1.392       .  D
C3735      H3740   1.088       .  S
C3735      C3736   1.353       .  D
C3736      C3869   1.487       .  S
C3741      C3742   1.549       .  S
C3741      C3747   1.528       .  S
C3741      C3745   1.552       .  S
C3741      C3997   1.558       .  S
C3742      H3749   1.086       .  S
C3742      C3743   1.368       .  D
C3743      C3821   1.507       .  S
C3743      C3744   1.534       .  S
C3744      C3748   1.530       .  S
C3744      C3746   1.561       .  S
C3744      H3750   1.095       .  S
C3745      H3751   1.072       .  S
C3745      C3746   1.394       .  D
C3747      H3752   1.088       .  S
C3747      C3748   1.347       .  D
C3748      C3850   1.469       .  S
C3753      C3754   1.576       .  S
C3753      C3759   1.509       .  S
C3753      C3757   1.543       .  S
C3753      C4077   1.565       .  S
C3754      H3761   1.076       .  S
C3754      C3755   1.402       .  D
C3755      C3756   1.563       .  S
C3756      C3760   1.554       .  S
C3756      C3758   1.551       .  S
C3756      H3762   1.094       .  S
C3757      H3763   1.078       .  S
C3757      C3758   1.363       .  D
C3758      C3822   1.525       .  S
C3759      H3764   1.080       .  S
C3759      C3760   1.336       .  D
C3760      C3834   1.495       .  S
N3765      H3797   1.041       .  S
N3765      C3770   1.347       .  A
N3765      C3769   1.352       .  A
N3766      C3773   1.346       .  A
N3767      H3798   1.042       .  S
N3767      C3772   1.352       .  A
N3767      C3771   1.351       .  A
N3768      C3775   1.342       .  A
C3769      C3777   1.389       .  A
C3769      C3785   1.421       .  A
C3770      C3786   1.412       .  A
C3770      C3778   1.385       .  A
C3771      C3779   1.387       .  A
C3771      C3788   1.406       .  A
C3772      C3787   1.414       .  A
C3772      C3780   1.385       .  A
C3773      C3785   1.410       .  A
C3773      C3781   1.392       .  A
C3774      C3788   1.392       .  A
C3774      C3782   1.380       .  A
C3775      C3783   1.389       .  A
C3775      C3786   1.403       .  A
C3776      C3784   1.381       .  A
C3776      C3787   1.389       .  A
C3777      C3778   1.386       .  A
C3777      H3789   1.079       .  S
C3778      H3790   1.081       .  S
C3779      C3780   1.372       .  A
C3779      H3791   1.083       .  S
C3780      H3792   1.082       .  S
C3781      H3793   1.082       .  S
C3782      H3794   1.083       .  S
C3783      H3795   1.082       .  S
C3784      H3796   1.081       .  S
C3785      C3885   1.507       .  S
C3786      C3866   1.484       .  S
C3787      C3853   1.473       .  S
C3788      C3837   1.477       .  S
N3799      H3831   1.041       .  S
N3799      C3804   1.365       .  A
N3799      C3803   1.365       .  A
N3800      C3807   1.371       .  A
N3800      C3808   1.374       .  A
N3801      H3832   1.042       .  S
N3801      C3806   1.354       .  A
N3801      C3805   1.351       .  A
N3802      C3809   1.356       .  A
N3802      C3810   1.363       .  A
C3803      C3811   1.389       .  A
C3803      C3819   1.441       .  A
C3804      C3820   1.436       .  A
C3804      C3812   1.386       .  A
C3805      C3813   1.383       .  A
C3805      C3822   1.404       .  A
C3806      C3821   1.407       .  A
C3806      C3814   1.378       .  A
C3807      C3819   1.468       .  A
C3807      C3815   1.391       .  A
C3808      C3822   1.436       .  A
C3808      C3816   1.370       .  A
C3809      C3817   1.377       .  A
C3809      C3820   1.429       .  A
C3810      C3818   1.372       .  A
C3810      C3821   1.406       .  A
C3811      C3812   1.383       .  A
C3811      H3823   1.082       .  S
C3812      H3824   1.082       .  S
C3813      C3814   1.371       .  A
C3813      H3825   1.080       .  S
C3814      H3826   1.071       .  S
C3815      C3816   1.373       .  A
C3815      H3827   1.074       .  S
C3816      H3828   1.079       .  S
C3817      C3818   1.362       .  A
C3817      H3829   1.047       .  S
C3818      H3830   1.082       .  S
C3833      C3834   1.404       .  A
C3833      C3838   1.397       .  A
C3833      H3840   1.076       .  S
C3834      C3835   1.433       .  A
C3835      C3836   1.407       .  A
C3835      C3842   1.528       .  S
C3836      C3837   1.398       .  A
C3836      H3841   1.083       .  S
C3837      C3838   1.400       .  A
C3838      C3839   1.505       .  S
C3839      F3843   1.374       .  S
C3839      F3844   1.383       .  S
C3839      F3845   1.381       .  S
C3842      F3846   1.381       .  S
C3842      F3847   1.383       .  S
C3842      F3848   1.384       .  S
C3849      C3850   1.397       .  A
C3849      C3854   1.400       .  A
C3849      H3856   1.083       .  S
C3850      C3851   1.416       .  A
C3851      C3852   1.394       .  A
C3851      C3858   1.514       .  S
C3852      C3853   1.399       .  A
C3852      H3857   1.086       .  S
C3853      C3854   1.405       .  A
C3854      C3855   1.497       .  S
C3855      F3859   1.377       .  S
C3855      F3860   1.384       .  S
C3855      F3861   1.382       .  S
C3858      F3862   1.383       .  S
C3858      F3863   1.377       .  S
C3858      F3864   1.377       .  S
C3865      C3866   1.396       .  A
C3865      C3870   1.405       .  A
C3865      H3872   1.085       .  S
C3866      C3867   1.425       .  A
C3867      C3868   1.402       .  A
C3867      C3874   1.523       .  S
C3868      C3869   1.400       .  A
C3868      H3873   1.084       .  S
C3869      C3870   1.423       .  A
C3870      C3871   1.510       .  S
C3871      F3875   1.384       .  S
C3871      F3876   1.377       .  S
C3871      F3877   1.374       .  S
C3874      F3878   1.372       .  S
C3874      F3879   1.382       .  S
C3874      F3880   1.384       .  S
C3881      C3882   1.401       .  A
C3881      C3886   1.399       .  A
C3881      H3888   1.085       .  S
C3882      C3883   1.401       .  A
C3883      C3884   1.391       .  A
C3883      C3890   1.521       .  S
C3884      C3885   1.416       .  A
C3884      H3889   1.066       .  S
C3885      C3886   1.422       .  A
C3886      C3887   1.517       .  S
C3887      F3891   1.383       .  S
C3887      F3892   1.378       .  S
C3887      F3893   1.383       .  S
C3890      F3894   1.380       .  S
C3890      F3895   1.378       .  S
C3890      F3896   1.384       .  S
C3897      C3898   1.403       .  A
C3897      C3902   1.390       .  A
C3897      H3904   1.081       .  S
C3898      C3899   1.444       .  A
C3899      C3900   1.391       .  A
C3899      C3906   1.522       .  S
C3900      C3901   1.378       .  A
C3900      H3905   1.085       .  S
C3901      C3902   1.400       .  A
C3902      C3903   1.512       .  S
C3903      F3907   1.370       .  S
C3903      F3908   1.377       .  S
C3903      F3909   1.383       .  S
C3906      F3910   1.386       .  S
C3906      F3911   1.372       .  S
C3906      F3912   1.376       .  S
C3913      C3914   1.391       .  A
C3913      C3918   1.397       .  A
C3913      H3920   1.085       .  S
C3914      C3915   1.433       .  A
C3915      C3916   1.407       .  A
C3915      C3922   1.521       .  S
C3916      C3917   1.396       .  A
C3916      H3921   1.084       .  S
C3917      C3918   1.419       .  A
C3918      C3919   1.505       .  S
C3919      F3923   1.383       .  S
C3919      F3924   1.377   1_554  S
C3919      F3925   1.382       .  S
C3922      F3926   1.382       .  S
C3922      F3927   1.382       .  S
C3922      F3928   1.386       .  S
C3929      C3930   1.417       .  A
C3929      C3934   1.411       .  A
C3929      H3936   1.082       .  S
C3930      C3931   1.415       .  A
C3931      C3932   1.399       .  A
C3931      C3938   1.526       .  S
C3932      C3933   1.410       .  A
C3932      H3937   1.076       .  S
C3933      C3934   1.408       .  A
C3934      C3935   1.513       .  S
C3935      F3939   1.384       .  S
C3935      F3940   1.383       .  S
C3935      F3941   1.381       .  S
C3938      F3942   1.384       .  S
C3938      F3943   1.380   1_554  S
C3938      F3944   1.385       .  S
C3945      C3946   1.397       .  A
C3945      C3950   1.392       .  A
C3945      H3952   1.074       .  S
C3946      C3947   1.404       .  A
C3947      C3948   1.401       .  A
C3947      C3954   1.510       .  S
C3948      C3949   1.408       .  A
C3948      H3953   1.083       .  S
C3949      C3950   1.420       .  A
C3950      C3951   1.522       .  S
C3951      F3955   1.385       .  S
C3951      F3956   1.380       .  S
C3951      F3957   1.383       .  S
C3954      F3958   1.382       .  S
C3954      F3959   1.384       .  S
C3954      F3960   1.384       .  S
C3961      C3962   1.411       .  A
C3961      C3966   1.423       .  A
C3961      H3968   1.083       .  S
C3962      C3963   1.422       .  A
C3963      C3964   1.410       .  A
C3963      C3970   1.524       .  S
C3964      C3965   1.418       .  A
C3964      H3969   1.081       .  S
C3965      C3966   1.430       .  A
C3966      C3967   1.514       .  S
C3967      F3971   1.385       .  S
C3967      F3972   1.382       .  S
C3967      F3973   1.383       .  S
C3970      F3974   1.384       .  S
C3970      F3975   1.384       .  S
C3970      F3976   1.385       .  S
C3977      C3978   1.415       .  A
C3977      C3982   1.409       .  A
C3977      H3984   1.084       .  S
C3978      C3979   1.424       .  A
C3979      C3980   1.409       .  A
C3979      C3986   1.521       .  S
C3980      C3981   1.412       .  A
C3980      H3985   1.082       .  S
C3981      C3982   1.414       .  A
C3982      C3983   1.513       .  S
C3983      F3987   1.385       .  S
C3983      F3988   1.383       .  S
C3983      F3989   1.383       .  S
C3986      F3990   1.383       .  S
C3986      F3991   1.384       .  S
C3986      F3992   1.385       .  S
C3993      C3994   1.417       .  A
C3993      C3998   1.419       .  A
C3993      H4000   1.083       .  S
C3994      C3995   1.427       .  A
C3995      C3996   1.409       .  A
C3995      C4002   1.523       .  S
C3996      C3997   1.412       .  A
C3996      H4001   1.080       .  S
C3997      C3998   1.420       .  A
C3998      C3999   1.515       .  S
C3999      F4003   1.384       .  S
C3999      F4004   1.382       .  S
C3999      F4005   1.384       .  S
C4002      F4006   1.384       .  S
C4002      F4007   1.383       .  S
C4002      F4008   1.385       .  S
C4009      C4010   1.396       .  A
C4009      C4014   1.410       .  A
C4009      H4016   1.082       .  S
C4010      C4011   1.411       .  A
C4011      C4012   1.412       .  A
C4011      C4018   1.518       .  S
C4012      C4013   1.419       .  A
C4012      H4017   1.074       .  S
C4013      C4014   1.442       .  A
C4014      C4015   1.528       .  S
C4015      F4019   1.382       .  S
C4015      F4020   1.381       .  S
C4015      F4021   1.384       .  S
C4018      F4022   1.384   1_655  S
C4018      F4023   1.383       .  S
C4018      F4024   1.385       .  S
C4025      C4026   1.414       .  A
C4025      C4030   1.424       .  A
C4025      H4032   1.078       .  S
C4026      C4027   1.443       .  A
C4027      C4028   1.417       .  A
C4027      C4034   1.515       .  S
C4028      C4029   1.397       .  A
C4028      H4033   1.083       .  S
C4029      C4030   1.430       .  A
C4030      C4031   1.522       .  S
C4031      F4035   1.385       .  S
C4031      F4036   1.383       .  S
C4031      F4037   1.384       .  S
C4034      F4038   1.380       .  S
C4034      F4039   1.379       .  S
C4034      F4040   1.386       .  S
C4041      C4042   1.401       .  A
C4041      C4046   1.424       .  A
C4041      H4048   1.083       .  S
C4042      C4043   1.430       .  A
C4043      C4044   1.417       .  A
C4043      C4050   1.521       .  S
C4044      C4045   1.413       .  A
C4044      H4049   1.083       .  S
C4045      C4046   1.444       .  A
C4046      C4047   1.518       .  S
C4047      F4051   1.386       .  S
C4047      F4052   1.381       .  S
C4047      F4053   1.384       .  S
C4050      F4054   1.385       .  S
C4050      F4055   1.373       .  S
C4050      F4056   1.383       .  S
C4057      C4058   1.421       .  A
C4057      C4062   1.416       .  A
C4057      H4064   1.073       .  S
C4058      C4059   1.439       .  A
C4059      C4060   1.408       .  A
C4059      C4066   1.526       .  S
C4060      C4061   1.398       .  A
C4060      H4065   1.086       .  S
C4061      C4062   1.409       .  A
C4062      C4063   1.511       .  S
C4063      F4067   1.382       .  S
C4063      F4068   1.383       .  S
C4063      F4069   1.385       .  S
C4066      F4070   1.383       .  S
C4066      F4071   1.372       .  S
C4066      F4072   1.382       .  S
C4073      C4074   1.400       .  A
C4073      C4078   1.417       .  A
C4073      H4080   1.082       .  S
C4074      C4075   1.434       .  A
C4075      C4076   1.421       .  A
C4075      C4082   1.521       .  S
C4076      C4077   1.409       .  A
C4076      H4081   1.077       .  S
C4077      C4078   1.444       .  A
C4078      C4079   1.525       .  S
C4079      F4083   1.384       .  S
C4079      F4084   1.381       .  S
C4079      F4085   1.380       .  S
C4082      F4086   1.383       .  S
C4082      F4087   1.384       .  S
C4082      F4088   1.383       .  S
O4089      C4099   1.271       .  A
O4090      C4100   1.270       .  A
O4090     Cu4097   1.969       .  S
O4091      C4101   1.291       .  A
O4092      C4102   1.289       .  A
O4093      C4102   1.274       .  A
O4094      C4101   1.270       .  A
O4095      C4100   1.288       .  A
O4096      C4099   1.290       .  A
O4096     Cu4098   2.090       .  S
C4099      C4613   1.521       .  S
C4100      C4645   1.490       .  S
C4101      C4658   1.522       .  S
C4102      C4626   1.512       .  S
O4103      C4113   1.279       .  A
O4104      C4114   1.280       .  A
O4105      C4115   1.278       .  A
O4105     Cu4111   2.007   1_665  S
O4106      C4116   1.277       .  A
O4107      C4116   1.280       .  A
O4108      C4115   1.280       .  A
O4109      C4114   1.279       .  A
O4110      C4113   1.280       .  A
O4110     Cu4112   2.029       .  S
C4113      C4546   1.513       .  S
C4114      C4578   1.514       .  S
C4115      C4594   1.496       .  S
C4116      C4562   1.506       .  S
N4117      H4149   1.036       .  S
N4117      C4121   1.355       .  A
N4118      C4125   1.355       .  A
N4118      C4126   1.360       .  A
N4119      H4150   1.039       .  S
N4119      C4123   1.362       .  A
N4120      C4127   1.360       .  A
N4120      C4128   1.359       .  A
C4121      C4129   1.388       .  A
C4121      C4137   1.429       .  A
C4122      C4138   1.435       .  A
C4122      C4130   1.387       .  A
C4123      C4131   1.387       .  A
C4123      C4140   1.429       .  A
C4124      C4139   1.421       .  A
C4124      C4132   1.388       .  A
C4125      C4137   1.435       .  A
C4125      C4133   1.391       .  A
C4126      C4140   1.418       .  A
C4126      C4134   1.378       .  A
C4127      C4135   1.391       .  A
C4127      C4138   1.443       .  A
C4128      C4136   1.373       .  A
C4128      C4139   1.412       .  A
C4129      H4141   1.083       .  S
C4130      H4142   1.082       .  S
C4131      H4143   1.081       .  S
C4132      H4144   1.081       .  S
C4133      C4134   1.376       .  A
C4133      H4145   1.076       .  S
C4134      H4146   1.082       .  S
C4135      C4136   1.367       .  A
C4135      H4147   1.070       .  S
C4136      H4148   1.081       .  S
C4137      C4318   1.536       .  S
C4138      C4303   1.558       .  S
C4139      C4189   1.498       .  S
C4140      C4180   1.521       .  S
C4151      C4152   1.538       .  S
C4151      C4157   1.533       .  S
C4151      C4155   1.562       .  S
C4151      C4642   1.560       .  S
C4152      H4159   1.078       .  S
C4152      C4153   1.364       .  D
C4153      C4256   1.504       .  S
C4153      C4154   1.537       .  S
C4154      C4158   1.515       .  S
C4154      C4156   1.567       .  S
C4154      H4160   1.086       .  S
C4155      H4161   1.085       .  S
C4155      C4156   1.388       .  D
C4156      C4287   1.550       .  S
C4157      H4162   1.087       .  S
C4157      C4158   1.358       .  D
C4158      C4530   1.468       .  S
C4163      C4164   1.532       .  S
C4163      C4169   1.504       .  S
C4163      C4167   1.557       .  S
C4163      C4597   1.560       .  S
C4164      H4171   1.062       .  S
C4164      C4165   1.384       .  D
C4165      C4288   1.551       .  S
C4165      C4166   1.589       .  S
C4166      C4170   1.558       .  S
C4166      C4168   1.545       .  S
C4166      H4172   1.091       .  S
C4167      H4173   1.080       .  S
C4167      C4168   1.370       .  D
C4168      C4255   1.521       .  S
C4169      H4174   1.090       .  S
C4169      C4170   1.350       .  D
C4170      C4517   1.501       .  S
C4175      C4176   1.554       .  S
C4175      C4181   1.531       .  S
C4175      C4179   1.537       .  S
C4175      C4565   1.544       .  S
C4176      H4183   1.077       .  S
C4176      C4177   1.377       .  D
C4177      C4404   1.531       .  S
C4177      C4178   1.562       .  S
C4178      C4182   1.550       .  S
C4178      C4180   1.559       .  S
C4178      H4184   1.109       .  S
C4179      H4185   1.086       .  S
C4179      C4180   1.368       .  D
C4181      H4186   1.085       .  S
C4181      C4182   1.347       .  D
C4182      C4498   1.482       .  S
C4187      C4188   1.528       .  S
C4187      C4193   1.529       .  S
C4187      C4191   1.594       .  S
C4187      C4610   1.569       .  S
C4188      H4195   1.078       .  S
C4188      C4189   1.358       .  D
C4189      C4190   1.548       .  S
C4190      C4194   1.530       .  S
C4190      C4192   1.545       .  S
C4190      H4196   1.075       .  S
C4191      H4197   1.081       .  S
C4191      C4192   1.412       .  D
C4192      C4403   1.573       .  S
C4193      H4198   1.081       .  S
C4193      C4194   1.340       .  D
C4194      C4482   1.491       .  S
N4199      H4231   1.039       .  S
N4199      C4204   1.348       .  A
N4200      C4208   1.332       .  A
N4201      H4232   1.041       .  S
N4201      C4206   1.355       .  A
N4202      C4210   1.335       .  A
C4203      C4211   1.393   1_565  A
C4203      C4219   1.426       .  A
C4204      C4220   1.413       .  A
C4204      C4212   1.385   1_565  A
C4205      C4213   1.386       .  A
C4205      C4222   1.406       .  A
C4206      C4221   1.417       .  A
C4206      C4214   1.388       .  A
C4207      C4219   1.372       .  A
C4207      C4215   1.384   1_565  A
C4208      C4222   1.380       .  A
C4208      C4216   1.386       .  A
C4209      C4217   1.384       .  A
C4209      C4220   1.406   1_545  A
C4210      C4218   1.389       .  A
C4210      C4221   1.406       .  A
C4211      H4223   1.081       .  S
C4212      H4224   1.083       .  S
C4213      H4225   1.082       .  S
C4214      H4226   1.082       .  S
C4215      H4227   1.081       .  S
C4216      H4228   1.082       .  S
C4217      H4229   1.082       .  S
C4218      H4230   1.082       .  S
C4219      C4533   1.480       .  S
C4220      C4514   1.494       .  S
C4221      C4501   1.478       .  S
C4222      C4485   1.448       .  S
N4233      H4265   1.038       .  S
N4233      C4238   1.356       .  A
N4234      C4241   1.357       .  A
N4234      C4242   1.357       .  A
N4235      H4266   1.041       .  S
N4235      C4240   1.358       .  A
N4236      C4243   1.356       .  A
N4236      C4244   1.363       .  A
C4237      C4245   1.385       .  A
C4237      C4253   1.433       .  A
C4238      C4254   1.432       .  A
C4238      C4246   1.385       .  A
C4239      C4247   1.393       .  A
C4239      C4256   1.426       .  A
C4240      C4255   1.417       .  A
C4240      C4248   1.381       .  A
C4241      C4253   1.431       .  A
C4241      C4249   1.384       .  A
C4242      C4256   1.421       .  A
C4242      C4250   1.382       .  A
C4243      C4251   1.388       .  A
C4243      C4254   1.433       .  A
C4244      C4252   1.380       .  A
C4244      C4255   1.424       .  A
C4245      H4257   1.080       .  S
C4246      H4258   1.082       .  S
C4247      H4259   1.077       .  S
C4248      H4260   1.078       .  S
C4249      C4250   1.368       .  A
C4249      H4261   1.077       .  S
C4250      H4262   1.077       .  S
C4251      C4252   1.378       .  A
C4251      H4263   1.081       .  S
C4252      H4264   1.078       .  S
C4253      C4339   1.554       .  S
C4254      C4330   1.537       .  S
N4267      H4299   1.035       .  S
N4267      C4272   1.361       .  A
N4267      C4271   1.365       .  A
N4268      C4275   1.354       .  A
N4268      C4276   1.353       .  A
N4269      H4300   1.036       .  S
N4269      C4274   1.357       .  A
N4269      C4273   1.361       .  A
N4270      C4277   1.360       .  A
N4270      C4278   1.359       .  A
C4271      C4279   1.376       .  A
C4271      C4287   1.430       .  A
C4272      C4288   1.447       .  A
C4272      C4280   1.392       .  A
C4273      C4281   1.386       .  A
C4273      C4290   1.430       .  A
C4274      C4289   1.426       .  A
C4274      C4282   1.386       .  A
C4275      C4287   1.421       .  A
C4275      C4283   1.378       .  A
C4276      C4290   1.414       .  A
C4276      C4284   1.377       .  A
C4277      C4285   1.383       .  A
C4277      C4288   1.430       .  A
C4278      C4286   1.380       .  A
C4278      C4289   1.426       .  A
C4279      C4280   1.381       .  A
C4279      H4291   1.078       .  S
C4280      H4292   1.081       .  S
C4281      C4282   1.374       .  A
C4281      H4293   1.078       .  S
C4282      H4294   1.079       .  S
C4283      C4284   1.362       .  A
C4283      H4295   1.076       .  S
C4284      H4296   1.074       .  S
C4285      C4286   1.368       .  A
C4285      H4297   1.075       .  S
C4286      H4298   1.075       .  S
C4289      C4315   1.509       .  S
C4290      C4306   1.509       .  S
C4301      C4302   1.578       .  S
C4301      C4307   1.540       .  S
C4301      C4305   1.547       .  S
C4301      C4629   1.578       .  S
C4302      H4309   1.081       .  S
C4302      C4303   1.400       .  D
C4303      C4304   1.550       .  S
C4304      C4308   1.504       .  S
C4304      C4306   1.534       .  S
C4304      H4310   1.080       .  S
C4305      H4311   1.070       .  S
C4305      C4306   1.360       .  D
C4307      H4312   1.087       .  S
C4307      C4308   1.356       .  D
C4308      C4466   1.462       .  S
C4313      C4314   1.547       .  S
C4313      C4319   1.533       .  S
C4313      C4317   1.557       .  S
C4313      C4549   1.568       .  S
C4314      H4321   1.086       .  S
C4314      C4315   1.366       .  D
C4315      C4316   1.543       .  S
C4316      C4320   1.535       .  S
C4316      C4318   1.557       .  S
C4316      H4322   1.093       .  S
C4317      H4323   1.068       .  S
C4317      C4318   1.393       .  D
C4319      H4324   1.088       .  S
C4319      C4320   1.351       .  D
C4320      C4453   1.486       .  S
C4325      C4326   1.551       .  S
C4325      C4331   1.528       .  S
C4325      C4329   1.547       .  S
C4325      C4581   1.554       .  S
C4326      H4333   1.086       .  S
C4326      C4327   1.369       .  D
C4327      C4405   1.507       .  S
C4327      C4328   1.535       .  S
C4328      C4332   1.533       .  S
C4328      C4330   1.559       .  S
C4328      H4334   1.095       .  S
C4329      H4335   1.073       .  S
C4329      C4330   1.390       .  D
C4331      H4336   1.088       .  S
C4331      C4332   1.347       .  D
C4332      C4434   1.468       .  S
C4337      C4338   1.572       .  S
C4337      C4343   1.511       .  S
C4337      C4341   1.546       .  S
C4337      C4661   1.564       .  S
C4338      H4345   1.075       .  S
C4338      C4339   1.400       .  D
C4339      C4340   1.565       .  S
C4340      C4344   1.554       .  S
C4340      C4342   1.552       .  S
C4340      H4346   1.094       .  S
C4341      H4347   1.078       .  S
C4341      C4342   1.366       .  D
C4342      C4406   1.526       .  S
C4343      H4348   1.081       .  S
C4343      C4344   1.336       .  D
C4344      C4418   1.492       .  S
N4349      H4381   1.042       .  S
N4349      C4354   1.346       .  A
N4349      C4353   1.352       .  A
N4350      C4357   1.345       .  A
N4351      H4382   1.043       .  S
N4351      C4356   1.352       .  A
N4351      C4355   1.352       .  A
N4352      C4359   1.341       .  A
C4353      C4361   1.389       .  A
C4353      C4369   1.421       .  A
C4354      C4370   1.412       .  A
C4354      C4362   1.384       .  A
C4355      C4363   1.389       .  A
C4355      C4372   1.408       .  A
C4356      C4371   1.411       .  A
C4356      C4364   1.383       .  A
C4357      C4369   1.409       .  A
C4357      C4365   1.392       .  A
C4358      C4372   1.391       .  A
C4358      C4366   1.379       .  A
C4359      C4367   1.390       .  A
C4359      C4370   1.403       .  A
C4360      C4368   1.379       .  A
C4360      C4371   1.386       .  A
C4361      C4362   1.386       .  A
C4361      H4373   1.081       .  S
C4362      H4374   1.080       .  S
C4363      C4364   1.372       .  A
C4363      H4375   1.083       .  S
C4364      H4376   1.082       .  S
C4365      H4377   1.082       .  S
C4366      H4378   1.083       .  S
C4367      H4379   1.082       .  S
C4368      H4380   1.080       .  S
C4369      C4469   1.508       .  S
C4370      C4450   1.483       .  S
C4371      C4437   1.475       .  S
C4372      C4421   1.476       .  S
N4383      H4415   1.042       .  S
N4383      C4388   1.362       .  A
N4383      C4387   1.361       .  A
N4384      C4391   1.371       .  A
N4384      C4392   1.372       .  A
N4385      H4416   1.043       .  S
N4385      C4390   1.356       .  A
N4385      C4389   1.351       .  A
N4386      C4393   1.352       .  A
N4386      C4394   1.360       .  A
C4387      C4395   1.390       .  A
C4387      C4403   1.435       .  A
C4388      C4404   1.428       .  A
C4388      C4396   1.385       .  A
C4389      C4397   1.382       .  A
C4389      C4406   1.406       .  A
C4390      C4405   1.411       .  A
C4390      C4398   1.378       .  A
C4391      C4403   1.467       .  A
C4391      C4399   1.392       .  A
C4392      C4406   1.435       .  A
C4392      C4400   1.370       .  A
C4393      C4401   1.377       .  A
C4393      C4404   1.420       .  A
C4394      C4402   1.376       .  A
C4394      C4405   1.403       .  A
C4395      C4396   1.382       .  A
C4395      H4407   1.082       .  S
C4396      H4408   1.082       .  S
C4397      C4398   1.375       .  A
C4397      H4409   1.081       .  S
C4398      H4410   1.070       .  S
C4399      C4400   1.374       .  A
C4399      H4411   1.072       .  S
C4400      H4412   1.080       .  S
C4401      C4402   1.368       .  A
C4401      H4413   1.057       .  S
C4402      H4414   1.082       .  S
C4417      C4418   1.403       .  A
C4417      C4422   1.396       .  A
C4417      H4424   1.076       .  S
C4418      C4419   1.432       .  A
C4419      C4420   1.403       .  A
C4419      C4426   1.526       .  S
C4420      C4421   1.398       .  A
C4420      H4425   1.083       .  S
C4421      C4422   1.401       .  A
C4422      C4423   1.505       .  S
C4423      F4427   1.373       .  S
C4423      F4428   1.383       .  S
C4423      F4429   1.382       .  S
C4426      F4430   1.380       .  S
C4426      F4431   1.383       .  S
C4426      F4432   1.385       .  S
C4433      C4434   1.395       .  A
C4433      C4438   1.398       .  A
C4433      H4440   1.083       .  S
C4434      C4435   1.416       .  A
C4435      C4436   1.398       .  A
C4435      C4442   1.515       .  S
C4436      C4437   1.402       .  A
C4436      H4441   1.086       .  S
C4437      C4438   1.405       .  A
C4438      C4439   1.498       .  S
C4439      F4443   1.378       .  S
C4439      F4444   1.383       .  S
C4439      F4445   1.380       .  S
C4442      F4446   1.382       .  S
C4442      F4447   1.378       .  S
C4442      F4448   1.378       .  S
C4449      C4450   1.395       .  A
C4449      C4454   1.404       .  A
C4449      H4456   1.085       .  S
C4450      C4451   1.425       .  A
C4451      C4452   1.404       .  A
C4451      C4458   1.524       .  S
C4452      C4453   1.401       .  A
C4452      H4457   1.084       .  S
C4453      C4454   1.422       .  A
C4454      C4455   1.510       .  S
C4455      F4459   1.384       .  S
C4455      F4460   1.377       .  S
C4455      F4461   1.373       .  S
C4458      F4462   1.371       .  S
C4458      F4463   1.381       .  S
C4458      F4464   1.384       .  S
C4465      C4466   1.402       .  A
C4465      C4470   1.400       .  A
C4465      H4472   1.085       .  S
C4466      C4467   1.400       .  A
C4467      C4468   1.390       .  A
C4467      C4474   1.522       .  S
C4468      C4469   1.417       .  A
C4468      H4473   1.065       .  S
C4469      C4470   1.423       .  A
C4470      C4471   1.518       .  S
C4471      F4475   1.383       .  S
C4471      F4476   1.378       .  S
C4471      F4477   1.384       .  S
C4474      F4478   1.380       .  S
C4474      F4479   1.379       .  S
C4474      F4480   1.384       .  S
C4481      C4482   1.407       .  A
C4481      C4486   1.394       .  A
C4481      H4488   1.080       .  S
C4482      C4483   1.446       .  A
C4483      C4484   1.390       .  A
C4483      C4490   1.523       .  S
C4484      C4485   1.378       .  A
C4484      H4489   1.085       .  S
C4485      C4486   1.402       .  A
C4486      C4487   1.519       .  S
C4487      F4491   1.376       .  S
C4487      F4492   1.378       .  S
C4487      F4493   1.382       .  S
C4490      F4494   1.386       .  S
C4490      F4495   1.373       .  S
C4490      F4496   1.378       .  S
C4497      C4498   1.391       .  A
C4497      C4502   1.395       .  A
C4497      H4504   1.085       .  S
C4498      C4499   1.434       .  A
C4499      C4500   1.403       .  A
C4499      C4506   1.521       .  S
C4500      C4501   1.393       .  A
C4500      H4505   1.084       .  S
C4501      C4502   1.417       .  A
C4502      C4503   1.505       .  S
C4503      F4507   1.384       .  S
C4503      F4508   1.377       .  S
C4503      F4509   1.383       .  S
C4506      F4510   1.383       .  S
C4506      F4511   1.381       .  S
C4506      F4512   1.386       .  S
C4513      C4514   1.415       .  A
C4513      C4518   1.412       .  A
C4513      H4520   1.082       .  S
C4514      C4515   1.413       .  A
C4515      C4516   1.400       .  A
C4515      C4522   1.526       .  S
C4516      C4517   1.414       .  A
C4516      H4521   1.081       .  S
C4517      C4518   1.411       .  A
C4518      C4519   1.513       .  S
C4519      F4523   1.384       .  S
C4519      F4524   1.383       .  S
C4519      F4525   1.381       .  S
C4522      F4526   1.384       .  S
C4522      F4527   1.380       .  S
C4522      F4528   1.385       .  S
C4529      C4530   1.401       .  A
C4529      C4534   1.391       .  A
C4529      H4536   1.073       .  S
C4530      C4531   1.406       .  A
C4531      C4532   1.402       .  A
C4531      C4538   1.512       .  S
C4532      C4533   1.406       .  A
C4532      H4537   1.083       .  S
C4533      C4534   1.414       .  A
C4534      C4535   1.523       .  S
C4535      F4539   1.385       .  S
C4535      F4540   1.378       .  S
C4535      F4541   1.382       .  S
C4538      F4542   1.383       .  S
C4538      F4543   1.383       .  S
C4538      F4544   1.385       .  S
C4545      C4546   1.413       .  A
C4545      C4550   1.423       .  A
C4545      H4552   1.082       .  S
C4546      C4547   1.421       .  A
C4547      C4548   1.407       .  A
C4547      C4554   1.523       .  S
C4548      C4549   1.417       .  A
C4548      H4553   1.080       .  S
C4549      C4550   1.431       .  A
C4550      C4551   1.515       .  S
C4551      F4555   1.386       .  S
C4551      F4556   1.382       .  S
C4551      F4557   1.383       .  S
C4554      F4558   1.383       .  S
C4554      F4559   1.384       .  S
C4554      F4560   1.385       .  S
C4561      C4562   1.416       .  A
C4561      C4566   1.410       .  A
C4561      H4568   1.084       .  S
C4562      C4563   1.426       .  A
C4563      C4564   1.408       .  A
C4563      C4570   1.519       .  S
C4564      C4565   1.409       .  A
C4564      H4569   1.083       .  S
C4565      C4566   1.413       .  A
C4566      C4567   1.512       .  S
C4567      F4571   1.384       .  S
C4567      F4572   1.383       .  S
C4567      F4573   1.383       .  S
C4570      F4574   1.384       .  S
C4570      F4575   1.382       .  S
C4570      F4576   1.386       .  S
C4577      C4578   1.416       .  A
C4577      C4582   1.419       .  A
C4577      H4584   1.084       .  S
C4578      C4579   1.425       .  A
C4579      C4580   1.407       .  A
C4579      C4586   1.520       .  S
C4580      C4581   1.409       .  A
C4580      H4585   1.082       .  S
C4581      C4582   1.421       .  A
C4582      C4583   1.515       .  S
C4583      F4587   1.384       .  S
C4583      F4588   1.383       .  S
C4583      F4589   1.384       .  S
C4586      F4590   1.383       .  S
C4586      F4591   1.384       .  S
C4586      F4592   1.382       .  S
C4593      C4594   1.399       .  A
C4593      C4598   1.411       .  A
C4593      H4600   1.082       .  S
C4594      C4595   1.413       .  A
C4595      C4596   1.411       .  A
C4595      C4602   1.519       .  S
C4596      C4597   1.422       .  A
C4596      H4601   1.075       .  S
C4597      C4598   1.439       .  A
C4598      C4599   1.523       .  S
C4599      F4603   1.383       .  S
C4599      F4604   1.382       .  S
C4599      F4605   1.385       .  S
C4602      F4606   1.384   1_655  S
C4602      F4607   1.382       .  S
C4602      F4608   1.385       .  S
C4609      C4610   1.411       .  A
C4609      C4614   1.422       .  A
C4609      H4616   1.077       .  S
C4610      C4611   1.438       .  A
C4611      C4612   1.418       .  A
C4611      C4618   1.515       .  S
C4612      C4613   1.400       .  A
C4612      H4617   1.083       .  S
C4613      C4614   1.432       .  A
C4614      C4615   1.521       .  S
C4615      F4619   1.384       .  S
C4615      F4620   1.383       .  S
C4615      F4621   1.384       .  S
C4618      F4622   1.381       .  S
C4618      F4623   1.380       .  S
C4618      F4624   1.385       .  S
C4625      C4626   1.400       .  A
C4625      C4630   1.422       .  A
C4625      H4632   1.083       .  S
C4626      C4627   1.430       .  A
C4627      C4628   1.415       .  A
C4627      C4634   1.522       .  S
C4628      C4629   1.412       .  A
C4628      H4633   1.082       .  S
C4629      C4630   1.445       .  A
C4630      C4631   1.520       .  S
C4631      F4635   1.386       .  S
C4631      F4636   1.379       .  S
C4631      F4637   1.383       .  S
C4634      F4638   1.385       .  S
C4634      F4639   1.372       .  S
C4634      F4640   1.383       .  S
C4641      C4642   1.420       .  A
C4641      C4646   1.418       .  A
C4641      H4648   1.074       .  S
C4642      C4643   1.437       .  A
C4643      C4644   1.403       .  A
C4643      C4650   1.519       .  S
C4644      C4645   1.394       .  A
C4644      H4649   1.087       .  S
C4645      C4646   1.412       .  A
C4646      C4647   1.511       .  S
C4647      F4651   1.382       .  S
C4647      F4652   1.383       .  S
C4647      F4653   1.385       .  S
C4650      F4654   1.383       .  S
C4650      F4655   1.369       .  S
C4650      F4656   1.384       .  S
C4657      C4658   1.400       .  A
C4657      C4662   1.416       .  A
C4657      H4664   1.082       .  S
C4658      C4659   1.434       .  A
C4659      C4660   1.420       .  A
C4659      C4666   1.522       .  S
C4660      C4661   1.409       .  A
C4660      H4665   1.076       .  S
C4661      C4662   1.441       .  A
C4662      C4663   1.522       .  S
C4663      F4667   1.383       .  S
C4663      F4668   1.382       .  S
C4663      F4669   1.379       .  S
C4666      F4670   1.383       .  S
C4666      F4671   1.383       .  S
C4666      F4672   1.385       .  S
