geometry optimzed in LAMMPS
_audit_creation_date              2020-12-01 
_audit_creation_method            'lammps2cif' 
_symmetry_space_group_name_H-M    'P1' 
_symmetry_Int_Tables_number       1 
_symmetry_cell_setting            triclinic 
loop_ 
_symmetry_equiv_pos_as_xyz 
  x,y,z 
_cell_length_a                    40.49842983 
_cell_length_b                    49.45265136682128 
_cell_length_c                    34.68202466195863 
_cell_angle_alpha                 90.09495569388767 
_cell_angle_beta                  90.22959315756691 
_cell_angle_gamma                 89.39474804684288 
loop_ 
_atom_site_label 
_atom_site_type_symbol 
_atom_site_fract_x 
_atom_site_fract_y 
_atom_site_fract_z 
_atom_site_charge 
O1          O  0.53234762  0.01870261  0.21150091    -0.70300
O2          O  0.46346882  0.02522317  0.12846664    -0.71300
O3          O  0.46239903  0.01511944  0.20894916    -0.59900
O4          O  0.53349823  0.02877781  0.13102263    -0.68300
O5          O  0.53786919  0.48453874  0.12048830    -0.67900
O6          O  0.46673397  0.47087951  0.19842706    -0.59100
O7          O  0.46790308  0.48098472  0.11789204    -0.71600
O8          O  0.53683624  0.47445802  0.20101439    -0.70400
Cu9        Cu  0.49778562  0.02350797  0.17039768     1.04600
Cu10       Cu  0.50248045  0.47615419  0.15904473     1.04300
C11         C  0.54546550  0.99573238  0.21913889     0.95900
C12         C  0.45482302  0.50398113  0.11029293     0.95000
C13         C  0.45338610  0.49094271  0.21581872     0.87200
C14         C  0.54684247  0.00872343  0.11361433     0.93400
C15         C  0.33841099  0.46825108  0.00593202     0.89100
C16         C  0.31961362  0.49427565  0.99557578    -0.51100
C17         C  0.33978333  0.01542551  0.32100056     0.12000
C18         C  0.37687719  0.00873760  0.32458478     0.23000
C19         C  0.36190223  0.46297250  0.30520660    -0.51800
C20         C  0.38202336  0.48435631  0.29770220     0.12200
C21         C  0.36094768  0.47582498  0.03966976    -0.51400
C22         C  0.38122409  0.99687693  0.03191329     0.12700
H23         H  0.29288259  0.99561040  0.32692311     0.17200
H24         H  0.39336069  0.02600015  0.31829278     0.03000
H25         H  0.36269693  0.44421278  0.28888449     0.17500
H26         H  0.36186869  0.46472408  0.06668966     0.17300
C27         C  0.65956614  0.03537311  0.32284013     0.89100
C28         C  0.63729663  0.02683346  0.28934425    -0.51100
C29         C  0.61873997  0.50474499  0.29717980     0.12000
C30         C  0.62444474  0.49291921  0.00432824     0.23000
C31         C  0.63617724  0.03930219  0.02390989    -0.51800
C32         C  0.61779207  0.01691951  0.03150079     0.12200
C33         C  0.68039478  0.01029831  0.33264760    -0.51400
C34         C  0.66200398  0.48809853  0.00726226     0.12700
H35         H  0.63525565  0.03800049  0.26245027     0.17200
H36         H  0.60936331  0.47482683  0.01070131     0.03000
H37         H  0.63410689  0.05795829  0.04034406     0.17500
H38         H  0.70720810  0.01027031  0.33413799     0.17300
O39         O  0.46479078  0.24780588  0.20216378    -0.70300
O40         O  0.53550090  0.24102031  0.12221108    -0.71300
O41         O  0.53467748  0.25057024  0.20267512    -0.59900
O42         O  0.46551306  0.23807826  0.12172355    -0.68300
O43         O  0.46204591  0.28236345  0.11142647    -0.67900
O44         O  0.53172630  0.29493612  0.19290521    -0.59100
O45         O  0.53231035  0.28533922  0.11200007    -0.71600
O46         O  0.46130146  0.29215502  0.19231471    -0.70400
Cu47       Cu  0.50022705  0.24284793  0.16259893     1.04600
Cu48       Cu  0.49672523  0.29029485  0.15178425     1.04300
C49         C  0.45186903  0.27086038  0.20964710     0.95900
C50         C  0.54503283  0.26217582  0.10463883     0.95000
C51         C  0.54421872  0.27450171  0.21034824     0.87200
C52         C  0.45288276  0.25826096  0.10392887     0.93400
C53         C  0.34349615  0.22439429  0.31184152     0.89100
C54         C  0.36393931  0.23504006  0.27827210    -0.51100
C55         C  0.37934745  0.25875400  0.28616060     0.12000
C56         C  0.37259109  0.26993252  0.99345977     0.23000
C57         C  0.36770685  0.22269491  0.01273893    -0.51800
C58         C  0.38290553  0.24669120  0.02041495     0.12200
C59         C  0.31942877  0.24737071  0.32205071    -0.51400
C60         C  0.33469662  0.27118300  0.99672640     0.12700
H61         H  0.36731873  0.22408739  0.25134642     0.17200
H62         H  0.38509928  0.28933913  0.99987193     0.03000
H63         H  0.37254921  0.20433130  0.02904506     0.17500
H64         H  0.29285580  0.24485086  0.32389688     0.17300
C65         C  0.65898818  0.23753108  0.31471451     0.89100
C66         C  0.67951476  0.26233641  0.32487065    -0.51100
C67         C  0.66090750  0.28482992  0.99900962     0.12000
C68         C  0.62338674  0.28056314  0.99512603     0.23000
C69         C  0.63504312  0.23414093  0.01524483    -0.51800
C70         C  0.61641986  0.25679375  0.02226508     0.12200
C71         C  0.63724807  0.24618936  0.28062768    -0.51400
C72         C  0.61837441  0.26857945  0.28786342     0.12700
H73         H  0.70627810  0.26190578  0.32735845     0.17200
H74         H  0.60810982  0.29888557  0.00111545     0.03000
H75         H  0.63281868  0.21562067  0.03179149     0.17500
H76         H  0.63557179  0.23476163  0.25390071     0.17300
O77         O  0.03773255  0.27416481  0.04383643    -0.70300
O78         O  0.96802819  0.29015440  0.29681094    -0.71300
O79         O  0.96768987  0.28022047  0.04432803    -0.60700
O80         O  0.03816057  0.28411537  0.29645337    -0.68300
O81         O  0.03288090  0.23999147  0.28609981    -0.67900
O82         O  0.96278808  0.23610322  0.03366999    -0.59100
O83         O  0.96320890  0.24599170  0.28655545    -0.71600
O84         O  0.03260286  0.23007926  0.03313644    -0.70400
Cu85       Cu  0.00307642  0.28374284  0.33740900     1.04600
Cu86       Cu  0.99767086  0.23651833  0.32609698     1.04300
C87         C  0.04614879  0.24969111  0.05089789     0.95900
C88         C  0.95465010  0.27036585  0.27921111     0.95000
C89         C  0.95423201  0.25757134  0.05163839     0.87200
C90         C  0.04661253  0.26249542  0.27874557     0.93400
C91         C  0.16003318  0.21992525  0.17453430     0.89100
C92         C  0.13836965  0.22868902  0.20849100    -0.51100
C93         C  0.11946991  0.25102035  0.20104135     0.12000
C94         C  0.12415600  0.26279497  0.16049450     0.23000
C95         C  0.13591057  0.21632927  0.14052720    -0.51800
C96         C  0.11715007  0.23895623  0.13338138     0.12200
C97         C  0.18035932  0.24482608  0.16433228    -0.51400
C98         C  0.16152898  0.26720912  0.15677979     0.12700
H99         H  0.13705503  0.21756969  0.23544206     0.17200
H100        H  0.10878665  0.28107381  0.15445678     0.03000
H101        H  0.13378052  0.19777950  0.12392627     0.17500
H102        H  0.20712423  0.24458167  0.16213244     0.17300
C103        C  0.84121680  0.23488979  0.17569325     0.89100
C104        C  0.81987454  0.25943570  0.16484211    -0.51100
C105        C  0.83774788  0.28194616  0.15697269     0.12000
C106        C  0.87541609  0.27793123  0.16116923     0.23000
C107        C  0.86542529  0.23117655  0.14207445    -0.51800
C108        C  0.88329662  0.25383700  0.13460848     0.12200
C109        C  0.86248228  0.24412942  0.20966688    -0.51400
C110        C  0.88065356  0.26648420  0.20204547     0.12700
H111        H  0.79312857  0.25884703  0.16237273     0.17200
H112        H  0.89010879  0.29624888  0.15486924     0.03000
H113        H  0.86834475  0.21244494  0.12597848     0.17500
H114        H  0.86454276  0.23299097  0.23658704     0.17300
O115        O  0.03397737  0.46337078  0.30230803    -0.70300
O116        O  0.96305849  0.47571702  0.04839899    -0.71300
O117        O  0.96352695  0.46585483  0.30093262    -0.59900
O118        O  0.03333551  0.47312019  0.04980178    -0.68300
O119        O  0.03515178  0.01743674  0.03952985    -0.67900
O120        O  0.96566265  0.01019548  0.29098094    -0.59100
O121        O  0.96513401  0.02001503  0.03803714    -0.71600
O122        O  0.03563062  0.00773622  0.29242581    -0.70400
Cu123      Cu  0.99840695  0.46793276  0.34240332     1.04600
Cu124      Cu  0.00046352  0.01538311  0.33149476     1.04300
C125        C  0.04599077  0.48382499  0.28510775     0.95900
C126        C  0.95301847  0.49977571  0.05555145     0.95000
C127        C  0.95357956  0.48706756  0.28326549     0.87200
C128        C  0.04518837  0.49636256  0.05742387     0.93400
C129        C  0.16051385  0.01881573  0.18053878     0.89100
C130        C  0.18021799  0.99338262  0.16966235    -0.51100
C131        C  0.16089933  0.47154234  0.16241857     0.12000
C132        C  0.12363769  0.47701512  0.16719706     0.23000
C133        C  0.13584634  0.02313487  0.14725923    -0.51800
C134        C  0.11657401  0.00111230  0.14044007     0.12200
C135        C  0.13938651  0.01067761  0.21503196    -0.51400
C136        C  0.11988636  0.48892890  0.20797260     0.12700
H137        H  0.20691376  0.49293623  0.16655304     0.17200
H138        H  0.10782270  0.45921691  0.16139186     0.03000
H139        H  0.13374996  0.04175615  0.13081712     0.17500
H140        H  0.13857574  0.02200117  0.24190844     0.17300
C141        C  0.84117678  0.03001573  0.17971427     0.89100
C142        C  0.86266805  0.02033280  0.21342964    -0.51100
C143        C  0.88031998  0.49740998  0.20562482     0.12000
C144        C  0.87453875  0.48596825  0.16492561     0.23000
C145        C  0.86509308  0.03288437  0.14567489    -0.51800
C146        C  0.88250418  0.00966046  0.13810836     0.12200
C147        C  0.81935941  0.00596775  0.16926358    -0.51400
C148        C  0.83686964  0.48295040  0.16127810     0.12700
H149        H  0.86500220  0.03138211  0.24041214     0.17200
H150        H  0.88887200  0.46720661  0.15853798     0.03000
H151        H  0.86810564  0.05142582  0.12936788     0.17500
H152        H  0.79261141  0.00725470  0.16707190     0.17300
O153        O  0.74060314  0.16415765  0.29777789    -0.70300
O154        O  0.79582328  0.10520695  0.24972791    -0.71300
O155        O  0.79560954  0.16264839  0.24752642    -0.59900
O156        O  0.74080941  0.10675024  0.30024413    -0.68300
O157        O  0.70717483  0.10591648  0.24944094    -0.67900
O158        O  0.76194309  0.16187458  0.19674638    -0.59100
O159        O  0.76211293  0.10443801  0.19899894    -0.71600
O160        O  0.70699049  0.16318492  0.24695950    -0.70400
Cu161      Cu  0.76944463  0.13470933  0.27560057     1.04600
Cu162      Cu  0.73337140  0.13381099  0.22126211     1.04300
C163        C  0.71517129  0.17292683  0.27967447     0.95900
C164        C  0.78752957  0.09554543  0.21696364     0.95000
C165        C  0.78724543  0.17115301  0.21412836     0.87200
C166        C  0.71537421  0.09759874  0.28299487     0.93400
O167        O  0.73663118  0.35629097  0.02888126    -0.70300
O168        O  0.79349040  0.41207187  0.08026281    -0.71300
O169        O  0.79337349  0.35472922  0.07802858    -0.59900
O170        O  0.73696215  0.41364512  0.03121873    -0.68300
O171        O  0.70429973  0.41306048  0.08255160    -0.67900
O172        O  0.76071012  0.35418644  0.12935255    -0.59100
O173        O  0.76077890  0.41147965  0.13155801    -0.71600
O174        O  0.70398652  0.35572528  0.08022694    -0.70400
Cu175      Cu  0.76625841  0.38417863  0.05277062     1.04600
Cu176      Cu  0.73129362  0.38356635  0.10771583     1.04300
C177        C  0.71130461  0.34741600  0.04642630     0.95900
C178        C  0.78600320  0.42047568  0.11397296     0.95000
C179        C  0.78603098  0.34543077  0.11119479     0.87200
C180        C  0.71183485  0.42256475  0.04957567     0.93400
O181        O  0.26890189  0.09154320  0.29529708    -0.70300
O182        O  0.21152556  0.14863173  0.24605335    -0.71300
O183        O  0.21188155  0.09132364  0.24769869    -0.59900
O184        O  0.26845419  0.14900813  0.29395706    -0.68300
O185        O  0.30022511  0.14827977  0.24184234    -0.67900
O186        O  0.24352847  0.09019607  0.19548302    -0.59100
O187        O  0.24310782  0.14771587  0.19379319    -0.71600
O188        O  0.30074195  0.09060996  0.24325323    -0.70400
Cu189      Cu  0.23911396  0.12016218  0.27256895     1.04600
Cu190      Cu  0.27307885  0.11917896  0.21674900     1.04300
C191        C  0.29362751  0.08198024  0.27686192     0.95900
C192        C  0.21826865  0.15707118  0.21224903     0.95000
C193        C  0.21880534  0.08169272  0.21452183     0.87200
C194        C  0.29303232  0.15782897  0.27504677     0.93400
O195        O  0.28883319  0.34111376  0.07695052    -0.70300
O196        O  0.23388853  0.39792940  0.12996300    -0.71300
O197        O  0.23443861  0.34064110  0.12848197    -0.59900
O198        O  0.28825230  0.39831936  0.07829328    -0.68300
O199        O  0.25371988  0.39906062  0.02831540    -0.67900
O200        O  0.19973890  0.34127927  0.07865676    -0.59100
O201        O  0.19921715  0.39871291  0.08012351    -0.71600
O202        O  0.25428355  0.34169607  0.02699113    -0.70400
Cu203      Cu  0.26254377  0.36948470  0.10517546     1.04600
Cu204      Cu  0.22547599  0.37021302  0.05176737     1.04300
C205        C  0.28029847  0.33262133  0.04364367     0.95900
C206        C  0.20796217  0.40719362  0.11339117     0.95000
C207        C  0.20867767  0.33193236  0.11140967     0.87200
C208        C  0.27958856  0.40757506  0.04539753     0.93400
C209        C  0.82105243  0.45910133  0.14643139    -0.10600
C210        C  0.80584481  0.44078069  0.13212097    -0.12200
C211        C  0.82239287  0.05465736  0.18915201    -0.10600
C212        C  0.80668988  0.07389163  0.20054269    -0.12200
C213        C  0.17467789  0.44681221  0.14702643    -0.10600
C214        C  0.18883251  0.42794681  0.13215200    -0.12200
C215        C  0.18136838  0.04221006  0.18881846    -0.10600
C216        C  0.19862984  0.06064285  0.19892721    -0.12200
C217        C  0.07031499  0.49881751  0.08647525    -0.10600
C218        C  0.09149618  0.50040760  0.11087431    -0.12200
C219        C  0.09408057  0.48166409  0.23438380    -0.10600
C220        C  0.07190618  0.48035632  0.25737857    -0.12200
C221        C  0.90595389  0.48819276  0.23150124    -0.10600
C222        C  0.92795252  0.48537488  0.25470810    -0.12200
C223        C  0.92776217  0.50417441  0.08382692    -0.10600
C224        C  0.90684222  0.00739980  0.10807172    -0.12200
C225        C  0.82203374  0.21080376  0.18489510    -0.10600
C226        C  0.80618581  0.19203709  0.19648659    -0.12200
C227        C  0.82207079  0.30613457  0.14210418    -0.10600
C228        C  0.80637688  0.32462192  0.12824651    -0.12200
C229        C  0.17585263  0.29180232  0.14267368    -0.10600
C230        C  0.18994034  0.31083420  0.12896111    -0.12200
C231        C  0.19777815  0.17772691  0.19515695    -0.10600
C232        C  0.18050357  0.19606593  0.18366385    -0.12200
C233        C  0.07132452  0.24418973  0.07920817    -0.10600
C234        C  0.09245005  0.24068998  0.10337451    -0.12200
C235        C  0.07233522  0.26304424  0.25050054    -0.10600
C236        C  0.09413908  0.25980564  0.22737116    -0.12200
C237        C  0.92916624  0.27510345  0.25101857    -0.10600
C238        C  0.90691065  0.27429533  0.22783091    -0.12200
C239        C  0.92907325  0.25617195  0.08054099    -0.10600
C240        C  0.90804349  0.25492304  0.10494725    -0.12200
C241        C  0.67578486  0.30911609  0.01380762    -0.10600
C242        C  0.69109733  0.32738394  0.02814073    -0.12200
C243        C  0.69568937  0.19447578  0.29575324    -0.10600
C244        C  0.67907905  0.21344575  0.30619643    -0.12200
C245        C  0.31222105  0.17943336  0.29088528    -0.10600
C246        C  0.32696938  0.19896992  0.30224226    -0.12200
C247        C  0.31657876  0.29438168  0.01087503    -0.10600
C248        C  0.30018787  0.31233694  0.02491275    -0.12200
C249        C  0.42595969  0.27235202  0.23763187    -0.10600
C250        C  0.40411466  0.26900233  0.26055040    -0.12200
C251        C  0.42798638  0.25371360  0.07502757    -0.10600
C252        C  0.40724823  0.25000910  0.05053318    -0.12200
C253        C  0.56986179  0.27797654  0.23864514    -0.10600
C254        C  0.59213057  0.27644688  0.26180075    -0.12200
C255        C  0.59166030  0.25815967  0.05192314    -0.10600
C256        C  0.57047197  0.25987627  0.07613172    -0.12200
C257        C  0.69591538  0.07723739  0.30112489    -0.10600
C258        C  0.67941832  0.05902259  0.31326592    -0.12200
C259        C  0.67712132  0.46325740  0.02054374    -0.10600
C260        C  0.69214663  0.44402532  0.03323508    -0.12200
C261        C  0.29931647  0.42797794  0.02761886    -0.10600
C262        C  0.31673121  0.44565560  0.01551545    -0.12200
C263        C  0.31295537  0.06049124  0.29371265    -0.10600
C264        C  0.32675044  0.04084945  0.30700180    -0.12200
C265        C  0.40750791  0.00390743  0.05801183    -0.10600
C266        C  0.42949896  0.00564256  0.08135734    -0.12200
C267        C  0.40660476  0.48428390  0.26770904    -0.10600
C268        C  0.42785148  0.48640545  0.24364297    -0.12200
C269        C  0.57082577  0.99421204  0.24805368    -0.10600
C270        C  0.59277052  0.49655829  0.27134657    -0.12200
C271        C  0.59338355  0.01586772  0.06159704    -0.10600
C272        C  0.57228820  0.01331824  0.08573260    -0.12200
O273        O  0.53235269  0.01870964  0.54485040    -0.70300
O274        O  0.46347397  0.02521724  0.46180967    -0.71300
O275        O  0.46240468  0.01512726  0.54229745    -0.59900
O276        O  0.53350452  0.02877155  0.46436832    -0.68300
O277        O  0.53787459  0.48453085  0.45384839    -0.67900
O278        O  0.46673959  0.47088548  0.53178971    -0.59100
O279        O  0.46790829  0.48097711  0.45125112    -0.71600
O280        O  0.53684022  0.47446332  0.53437759    -0.70400
Cu281      Cu  0.49779111  0.02350885  0.50374394     1.04600
Cu282      Cu  0.50248542  0.47615323  0.49240671     1.04300
C283        C  0.54546995  0.99574031  0.55249566     0.95900
C284        C  0.45482885  0.50397215  0.44364211     0.95000
C285        C  0.45339224  0.49095149  0.54917479     0.87200
C286        C  0.54684825  0.00871413  0.44696648     0.93400
C287        C  0.33843031  0.46822081  0.33926520     0.89100
C288        C  0.31963823  0.49424519  0.32889578    -0.51100
C289        C  0.33976797  0.01543971  0.65431450     0.12000
C290        C  0.37686271  0.00876203  0.65791578     0.23000
C291        C  0.36191012  0.46298738  0.63856055    -0.51800
C292        C  0.38202469  0.48437390  0.63105054     0.12200
C293        C  0.36096462  0.47579922  0.37300335    -0.51400
C294        C  0.38124518  0.99684789  0.36524206     0.12700
H295        H  0.29287193  0.99561563  0.66023265     0.17200
H296        H  0.39334158  0.02602639  0.65161891     0.03000
H297        H  0.36271625  0.44422295  0.62224994     0.17500
H298        H  0.36187890  0.46470484  0.40002867     0.17300
C299        C  0.65958489  0.03536368  0.65620214     0.89100
C300        C  0.63731417  0.02683053  0.62270352    -0.51100
C301        C  0.61874823  0.50474694  0.63053707     0.12000
C302        C  0.62444536  0.49291026  0.33766701     0.23000
C303        C  0.63617239  0.03929316  0.35725419    -0.51800
C304        C  0.61778984  0.01690859  0.36484236     0.12200
C305        C  0.68040334  0.01028360  0.66601001    -0.51400
C306        C  0.66200513  0.48809248  0.34060187     0.12700
H307        H  0.63527945  0.03799861  0.59580974     0.17200
H308        H  0.60936599  0.47481626  0.34403803     0.03000
H309        H  0.63410073  0.05794783  0.37369140     0.17500
H310        H  0.70721641  0.01024815  0.66750086     0.17300
O311        O  0.46480124  0.24780029  0.53548436    -0.70300
O312        O  0.53550027  0.24101541  0.45552102    -0.71300
O313        O  0.53468916  0.25054632  0.53598937    -0.59900
O314        O  0.46551090  0.23808871  0.45503904    -0.68300
O315        O  0.46205638  0.28237633  0.44476075    -0.67900
O316        O  0.53175270  0.29491485  0.52623850    -0.59100
O317        O  0.53232219  0.28533726  0.44533009    -0.71600
O318        O  0.46132760  0.29215241  0.52565396    -0.70400
Cu319      Cu  0.50023121  0.24284168  0.49591315     1.04600
Cu320      Cu  0.49674441  0.29029159  0.48511910     1.04300
C321        C  0.45188997  0.27085685  0.54297924     0.95900
C322        C  0.54503729  0.26217319  0.43795830     0.95000
C323        C  0.54423990  0.27447388  0.54367170     0.87200
C324        C  0.45288483  0.25827720  0.43725355     0.93400
C325        C  0.34351362  0.22439507  0.64515849     0.89100
C326        C  0.36396135  0.23504273  0.61159490    -0.51100
C327        C  0.37937368  0.25875294  0.61949326     0.12000
C328        C  0.37256460  0.26994230  0.32679002     0.23000
C329        C  0.36770966  0.22270353  0.34607439    -0.51800
C330        C  0.38289639  0.24670610  0.35374591     0.12200
C331        C  0.31945044  0.24737320  0.65537259    -0.51400
C332        C  0.33466933  0.27117879  0.33006513     0.12700
H333        H  0.36733978  0.22409423  0.58466552     0.17200
H334        H  0.38506268  0.28935388  0.33319832     0.03000
H335        H  0.37256528  0.20434233  0.36238056     0.17500
H336        H  0.29287645  0.24485733  0.65721400     0.17300
C337        C  0.65900313  0.23750776  0.64808395     0.89100
C338        C  0.67952663  0.26231646  0.65822897    -0.51100
C339        C  0.66090725  0.28483963  0.33232854     0.12000
C340        C  0.62338631  0.28057332  0.32844823     0.23000
C341        C  0.63504353  0.23415023  0.34856188    -0.51800
C342        C  0.61642145  0.25680255  0.35558521     0.12200
C343        C  0.63726784  0.24615438  0.61398686    -0.51400
C344        C  0.61839133  0.26854586  0.62120430     0.12700
H345        H  0.70628959  0.26188700  0.66072447     0.17200
H346        H  0.60810971  0.29889548  0.33444074     0.03000
H347        H  0.63281937  0.21562895  0.36510707     0.17500
H348        H  0.63559693  0.23471834  0.58726686     0.17300
O349        O  0.03772404  0.27415544  0.37713163    -0.70300
O350        O  0.96801469  0.29014930  0.63013304    -0.71300
O351        O  0.96768141  0.28021239  0.37762301    -0.60700
O352        O  0.03814643  0.28411147  0.62977348    -0.68300
O353        O  0.03286680  0.23998448  0.61944561    -0.67900
O354        O  0.96277824  0.23609593  0.36696082    -0.59100
O355        O  0.96319547  0.24598370  0.61990388    -0.71600
O356        O  0.03259264  0.23007026  0.36643006    -0.70400
Cu357      Cu  0.00306657  0.28375023  0.67073281     1.04600
Cu358      Cu  0.99766049  0.23652248  0.65944861     1.04300
C359        C  0.04613875  0.24968147  0.38419257     0.95900
C360        C  0.95463645  0.27035563  0.61254473     0.95000
C361        C  0.95422314  0.25756306  0.38493228     0.87200
C362        C  0.04659608  0.26248693  0.61207590     0.93400
C363        C  0.16001601  0.21992868  0.50784092     0.89100
C364        C  0.13834552  0.22868093  0.54179743    -0.51100
C365        C  0.11943713  0.25100786  0.53435123     0.12000
C366        C  0.12412083  0.26278909  0.49380820     0.23000
C367        C  0.13589901  0.21632942  0.47382969    -0.51800
C368        C  0.11712908  0.23895155  0.46668751     0.12200
C369        C  0.18033137  0.24483701  0.49764894    -0.51400
C370        C  0.16149168  0.26721517  0.49010097     0.12700
H371        H  0.13703630  0.21755968  0.56874704     0.17200
H372        H  0.10874409  0.28106413  0.48777359     0.03000
H373        H  0.13377952  0.19778138  0.45722336     0.17500
H374        H  0.20709658  0.24460149  0.49545415     0.17300
C375        C  0.84121414  0.23487057  0.50899840     0.89100
C376        C  0.81987472  0.25941865  0.49814930    -0.51100
C377        C  0.83775071  0.28192846  0.49028377     0.12000
C378        C  0.87541860  0.27791080  0.49448145     0.23000
C379        C  0.86542353  0.23115805  0.47537923    -0.51800
C380        C  0.88329732  0.25381826  0.46791646     0.12200
C381        C  0.86247966  0.24410677  0.54297390    -0.51400
C382        C  0.88065338  0.26646072  0.53535682     0.12700
H383        H  0.79312867  0.25883194  0.49567914     0.17200
H384        H  0.89011293  0.29622788  0.48818489     0.03000
H385        H  0.86834003  0.21242808  0.45927956     0.17500
H386        H  0.86453638  0.23296757  0.56989368     0.17300
O387        O  0.03398247  0.46341019  0.63563730    -0.70300
O388        O  0.96306887  0.47574353  0.38171968    -0.71300
O389        O  0.96353474  0.46588845  0.63426216    -0.59900
O390        O  0.03334370  0.47314705  0.38312114    -0.68300
O391        O  0.03516039  0.01746339  0.37284714    -0.67900
O392        O  0.96566342  0.01023155  0.62432981    -0.59100
O393        O  0.96514267  0.02004152  0.37135654    -0.71600
O394        O  0.03563172  0.00777804  0.62577403    -0.70400
Cu395      Cu  0.99841276  0.46796011  0.67573429     1.04600
Cu396      Cu  0.00046414  0.01541315  0.66484773     1.04300
C397        C  0.04599291  0.48386854  0.61844449     0.95900
C398        C  0.95302806  0.49980186  0.38887149     0.95000
C399        C  0.95358554  0.48710352  0.61660251     0.87200
C400        C  0.04519622  0.49638955  0.39074195     0.93400
C401        C  0.16051706  0.01884193  0.51385316     0.89100
C402        C  0.18021738  0.99340462  0.50298821    -0.51100
C403        C  0.16089498  0.47156546  0.49575141     0.12000
C404        C  0.12363386  0.47704439  0.50052577     0.23000
C405        C  0.13585273  0.02315852  0.48057119    -0.51800
C406        C  0.11657672  0.00113764  0.47375962     0.12200
C407        C  0.13938702  0.01071393  0.54834842    -0.51400
C408        C  0.11988302  0.48896671  0.54129666     0.12700
H409        H  0.20691315  0.49295447  0.49987959     0.17200
H410        H  0.10781520  0.45924747  0.49472606     0.03000
H411        H  0.13376090  0.04177692  0.46412171     0.17500
H412        H  0.13857763  0.02204273  0.57522039     0.17300
C413        C  0.84117003  0.03001306  0.51302569     0.89100
C414        C  0.86266681  0.02034266  0.54674306    -0.51100
C415        C  0.88033133  0.49742581  0.53894416     0.12000
C416        C  0.87455597  0.48597634  0.49824777     0.23000
C417        C  0.86508379  0.03288671  0.47898545    -0.51800
C418        C  0.88250794  0.00966853  0.47142457     0.12200
C419        C  0.81936562  0.00595616  0.50258213    -0.51400
C420        C  0.83688807  0.48294408  0.49460219     0.12700
H421        H  0.86499464  0.03139598  0.57372285     0.17200
H422        H  0.88889987  0.46721942  0.49186458     0.03000
H423        H  0.86808614  0.05142730  0.46267495     0.17500
H424        H  0.79261699  0.00723330  0.50039084     0.17300
O425        O  0.74063212  0.16414095  0.63113727    -0.70300
O426        O  0.79582861  0.10519388  0.58304565    -0.71300
O427        O  0.79561809  0.16263528  0.58085069    -0.59900
O428        O  0.74083832  0.10673420  0.63359363    -0.68300
O429        O  0.70718337  0.10590509  0.58280840    -0.67900
O430        O  0.76192953  0.16186584  0.53009058    -0.59100
O431        O  0.76209735  0.10442985  0.53233516    -0.71600
O432        O  0.70699855  0.16317138  0.58033739    -0.70400
Cu433      Cu  0.76946351  0.13469464  0.60893783     1.04600
Cu434      Cu  0.73336755  0.13380097  0.55461945     1.04300
C435        C  0.71519153  0.17290963  0.61305018     0.95900
C436        C  0.78752030  0.09553500  0.55028502     0.95000
C437        C  0.78724094  0.17114145  0.54745751     0.87200
C438        C  0.71539627  0.09758455  0.61635633     0.93400
O439        O  0.73663655  0.35629246  0.36221170    -0.70300
O440        O  0.79350696  0.41206380  0.41359572    -0.71300
O441        O  0.79338224  0.35472201  0.41135312    -0.59900
O442        O  0.73697317  0.41364560  0.36455812    -0.68300
O443        O  0.70431531  0.41305994  0.41589463    -0.67900
O444        O  0.76072244  0.35417769  0.46267997    -0.59100
O445        O  0.76080040  0.41147042  0.46489508    -0.71600
O446        O  0.70399505  0.35572530  0.41355989    -0.70400
Cu447      Cu  0.76626869  0.38417549  0.38610250     1.04600
Cu448      Cu  0.73130826  0.38356178  0.44105129     1.04300
C449        C  0.71130992  0.34741823  0.37975713     0.95900
C450        C  0.78602493  0.42046503  0.44730855     0.95000
C451        C  0.78604085  0.34542138  0.44451839     0.87200
C452        C  0.71184747  0.42256495  0.38291824     0.93400
O453        O  0.26890046  0.09156088  0.62859426    -0.70300
O454        O  0.21153409  0.14865317  0.57935394    -0.71300
O455        O  0.21188417  0.09134812  0.58099626    -0.59900
O456        O  0.26846157  0.14902392  0.62725612    -0.68300
O457        O  0.30023304  0.14829405  0.57514151    -0.67900
O458        O  0.24353214  0.09021885  0.52878094    -0.59100
O459        O  0.24311561  0.14773624  0.52709299    -0.71600
O460        O  0.30074200  0.09062490  0.57655144    -0.70400
Cu461      Cu  0.23911842  0.12018242  0.60586755     1.04600
Cu462      Cu  0.27308403  0.11919730  0.55004753     1.04300
C463        C  0.29362391  0.08199473  0.61015894     0.95900
C464        C  0.21827628  0.15709109  0.54554899     0.95000
C465        C  0.21880845  0.08171734  0.54781980     0.87200
C466        C  0.29304115  0.15784220  0.60834653     0.93400
O467        O  0.28879769  0.34110295  0.41030333    -0.70300
O468        O  0.23387168  0.39793728  0.46330905    -0.71300
O469        O  0.23440040  0.34064866  0.46183320    -0.59900
O470        O  0.28823899  0.39830923  0.41164047    -0.68300
O471        O  0.25370814  0.39905747  0.36166144    -0.67900
O472        O  0.19970297  0.34129342  0.41200552    -0.59100
O473        O  0.19920197  0.39872631  0.41346826    -0.71600
O474        O  0.25424983  0.34169211  0.36034247    -0.70400
Cu475      Cu  0.26251763  0.36948323  0.43852506     1.04600
Cu476      Cu  0.22545188  0.37021854  0.38511536     1.04300
C477        C  0.28026126  0.33261128  0.37699631     0.95900
C478        C  0.20794843  0.40720646  0.44673577     0.95000
C479        C  0.20863740  0.33194542  0.44475919     0.87200
C480        C  0.27958061  0.40756508  0.37874292     0.93400
C481        C  0.82108109  0.45908807  0.47976290    -0.10600
C482        C  0.80587233  0.44076648  0.46545644    -0.12200
C483        C  0.82237528  0.05464925  0.52245795    -0.10600
C484        C  0.80667218  0.07388190  0.53385186    -0.12200
C485        C  0.17467035  0.44683180  0.48036577    -0.10600
C486        C  0.18882323  0.42796385  0.46549483    -0.12200
C487        C  0.18137325  0.04223488  0.52212338    -0.10600
C488        C  0.19863391  0.06066836  0.53222693    -0.12200
C489        C  0.07032163  0.49884448  0.41979298    -0.10600
C490        C  0.09150109  0.50043272  0.44419326    -0.12200
C491        C  0.09407658  0.48170995  0.56771127    -0.10600
C492        C  0.07190497  0.48040524  0.59070997    -0.12200
C493        C  0.90596825  0.48822113  0.56482545    -0.10600
C494        C  0.92796383  0.48541143  0.58803827    -0.12200
C495        C  0.92777086  0.50419831  0.41714620    -0.10600
C496        C  0.90684874  0.00741602  0.44139009    -0.12200
C497        C  0.82202741  0.21078598  0.51820100    -0.10600
C498        C  0.80617847  0.19202258  0.52980272    -0.12200
C499        C  0.82207676  0.30611937  0.47541876    -0.10600
C500        C  0.80638505  0.32460933  0.46156477    -0.12200
C501        C  0.17580673  0.29181508  0.47600962    -0.10600
C502        C  0.18989449  0.31084987  0.46230679    -0.12200
C503        C  0.19778176  0.17774256  0.52845581    -0.10600
C504        C  0.18049773  0.19607590  0.51696552    -0.12200
C505        C  0.07131206  0.24417945  0.41250467    -0.10600
C506        C  0.09243412  0.24068191  0.43667529    -0.12200
C507        C  0.07231223  0.26302982  0.58382327    -0.10600
C508        C  0.09410996  0.25978992  0.56068692    -0.12200
C509        C  0.92915461  0.27508516  0.58434593    -0.10600
C510        C  0.90690443  0.27427317  0.56115088    -0.12200
C511        C  0.92906674  0.25616138  0.41383896    -0.10600
C512        C  0.90804052  0.25490786  0.43824974    -0.12200
C513        C  0.67578558  0.30912408  0.34713128    -0.10600
C514        C  0.69109920  0.32738963  0.36146884    -0.12200
C515        C  0.69571243  0.19445431  0.62914305    -0.10600
C516        C  0.67909807  0.21342210  0.63958409    -0.12200
C517        C  0.31223281  0.17944237  0.62418736    -0.10600
C518        C  0.32698330  0.19897540  0.63554983    -0.12200
C519        C  0.31654058  0.29437094  0.34422142    -0.10600
C520        C  0.30014717  0.31232365  0.35826410    -0.12200
C521        C  0.42598604  0.27235058  0.57096867    -0.10600
C522        C  0.40414233  0.26900240  0.59388815    -0.12200
C523        C  0.42798423  0.25373897  0.40835182    -0.10600
C524        C  0.40724322  0.25003363  0.38385959    -0.12200
C525        C  0.56988590  0.27793745  0.57196961    -0.10600
C526        C  0.59215218  0.27640612  0.59512931    -0.12200
C527        C  0.59166250  0.25816501  0.38524215    -0.10600
C528        C  0.57047454  0.25987637  0.40945060    -0.12200
C529        C  0.69594421  0.07722211  0.63449198    -0.10600
C530        C  0.67944589  0.05900820  0.64663194    -0.12200
C531        C  0.67712610  0.46325331  0.35388567    -0.10600
C532        C  0.69215576  0.44402396  0.36657872    -0.12200
C533        C  0.29931977  0.42795964  0.36096100    -0.10600
C534        C  0.31674384  0.44563031  0.34885442    -0.12200
C535        C  0.31294455  0.06050184  0.62700924    -0.10600
C536        C  0.32673339  0.04085927  0.64030370    -0.12200
C537        C  0.40752251  0.00388578  0.39134750    -0.10600
C538        C  0.42950785  0.00562782  0.41470042    -0.12200
C539        C  0.40661078  0.48429918  0.60106420    -0.10600
C540        C  0.42785866  0.48641840  0.57700007    -0.12200
C541        C  0.57083026  0.99422321  0.58141079    -0.10600
C542        C  0.59277610  0.49656730  0.60470280    -0.12200
C543        C  0.59338452  0.01585305  0.39494181    -0.10600
C544        C  0.57229223  0.01330438  0.41908116    -0.12200
O545        O  0.53233947  0.01872832  0.87817874    -0.70300
O546        O  0.46345989  0.02526301  0.79514290    -0.71300
O547        O  0.46238834  0.01516364  0.87562760    -0.59900
O548        O  0.53349387  0.02879926  0.79770025    -0.68300
O549        O  0.53784738  0.48455846  0.78717167    -0.67900
O550        O  0.46670760  0.47092240  0.86510763    -0.59100
O551        O  0.46788017  0.48102303  0.78457461    -0.71600
O552        O  0.53681036  0.47448210  0.86769595    -0.70400
Cu553      Cu  0.49777812  0.02354126  0.83707522     1.04600
Cu554      Cu  0.50245544  0.47618576  0.82572695     1.04300
C555        C  0.54544923  0.99575505  0.88581729     0.95900
C556        C  0.45480688  0.50402130  0.77697243     0.95000
C557        C  0.45336643  0.49098919  0.88249708     0.87200
C558        C  0.54683128  0.00873994  0.78029627     0.93400
C559        C  0.33842744  0.46824008  0.67260701     0.89100
C560        C  0.31962813  0.49425687  0.66221474    -0.51100
C561        C  0.33975511  0.01545947  0.98768599     0.12000
C562        C  0.37684994  0.00877458  0.99126224     0.23000
C563        C  0.36188006  0.46301186  0.97186815    -0.51800
C564        C  0.38199690  0.48439924  0.96437002     0.12200
C565        C  0.36094961  0.47583468  0.70634898    -0.51400
C566        C  0.38122384  0.99688637  0.69858148     0.12700
H567        H  0.29285793  0.99563838  0.99360561     0.17200
H568        H  0.39333053  0.02603969  0.98497465     0.03000
H569        H  0.36267740  0.44425480  0.95553966     0.17500
H570        H  0.36186281  0.46474763  0.73338029     0.17300
C571        C  0.65957023  0.03537829  0.98949561     0.89100
C572        C  0.63729905  0.02683843  0.95600127    -0.51100
C573        C  0.61873971  0.50475226  0.96384028     0.12000
C574        C  0.62444643  0.49291024  0.67102419     0.23000
C575        C  0.63619051  0.03928970  0.69061380    -0.51800
C576        C  0.61779809  0.01691045  0.69819882     0.12200
C577        C  0.68039628  0.01030242  0.99930552    -0.51400
C578        C  0.66200454  0.48808254  0.67396099     0.12700
H579        H  0.63525772  0.03800476  0.92910650     0.17200
H580        H  0.60935910  0.47482040  0.67739313     0.03000
H581        H  0.63412301  0.05794546  0.70704944     0.17500
H582        H  0.70720965  0.01027204  0.00079417     0.17300
O583        O  0.46480409  0.24779820  0.86882354    -0.70300
O584        O  0.53550925  0.24101847  0.78886932    -0.71300
O585        O  0.53468928  0.25056083  0.86933484    -0.59900
O586        O  0.46552213  0.23807778  0.78838174    -0.68300
O587        O  0.46205528  0.28236380  0.77809287    -0.67900
O588        O  0.53174038  0.29492751  0.85957130    -0.59100
O589        O  0.53231893  0.28533824  0.77866485    -0.71600
O590        O  0.46131689  0.29214871  0.85898305    -0.70400
Cu591      Cu  0.50023757  0.24284293  0.82925740     1.04600
Cu592      Cu  0.49673711  0.29029096  0.81845079     1.04300
C593        C  0.45188525  0.27085277  0.87631241     0.95900
C594        C  0.54504050  0.26217527  0.77130019     0.95000
C595        C  0.54423147  0.27449149  0.87701204     0.87200
C596        C  0.45289180  0.25826204  0.77059060     0.93400
C597        C  0.34349954  0.22439680  0.97850195     0.89100
C598        C  0.36395337  0.23503579  0.94493719    -0.51100
C599        C  0.37937225  0.25874397  0.95283114     0.12000
C600        C  0.37259108  0.26993551  0.66012532     0.23000
C601        C  0.36772376  0.22269447  0.67939296    -0.51800
C602        C  0.38291495  0.24669325  0.68707400     0.12200
C603        C  0.31944349  0.24738144  0.98870804    -0.51400
C604        C  0.33469618  0.27117740  0.66339636     0.12700
H605        H  0.36732780  0.22408467  0.91800921     0.17200
H606        H  0.38509360  0.28934391  0.66654148     0.03000
H607        H  0.37257294  0.20433010  0.69569411     0.17500
H608        H  0.29286836  0.24487202  0.99054763     0.17300
C609        C  0.65899077  0.23752085  0.98139891     0.89100
C610        C  0.67951581  0.26232665  0.99155570    -0.51100
C611        C  0.66091717  0.28482125  0.66566907     0.12000
C612        C  0.62339669  0.28055261  0.66178305     0.23000
C613        C  0.63505344  0.23413617  0.68192834    -0.51800
C614        C  0.61642889  0.25679002  0.68893355     0.12200
C615        C  0.63725305  0.24617781  0.94730952    -0.51400
C616        C  0.61837818  0.26856755  0.95454144     0.12700
H617        H  0.70627934  0.26189669  0.99404441     0.17200
H618        H  0.60811828  0.29887612  0.66776131     0.03000
H619        H  0.63282846  0.21562029  0.69848499     0.17500
H620        H  0.63557939  0.23474940  0.92058279     0.17300
O621        O  0.03771688  0.27417422  0.71045958    -0.70300
O622        O  0.96803315  0.29015953  0.96351711    -0.71300
O623        O  0.96767677  0.28023184  0.71095247    -0.60700
O624        O  0.03816352  0.28412355  0.96315579    -0.68300
O625        O  0.03288563  0.23999929  0.95280450    -0.67900
O626        O  0.96277242  0.23611229  0.70031645    -0.59100
O627        O  0.96321502  0.24599644  0.95326448    -0.71600
O628        O  0.03258443  0.23008616  0.69978352    -0.70400
Cu629      Cu  0.00308271  0.28375037  0.00411403     1.04600
Cu630      Cu  0.99767880  0.23652531  0.99280486     1.04300
C631        C  0.04613018  0.24970201  0.71753603     0.95900
C632        C  0.95465624  0.27037024  0.94591783     0.95000
C633        C  0.95422106  0.25758434  0.71827812     0.87200
C634        C  0.04661334  0.26250416  0.94544573     0.93400
C635        C  0.16000017  0.21993785  0.84118839     0.89100
C636        C  0.13834002  0.22869889  0.87514872    -0.51100
C637        C  0.11944051  0.25103103  0.86770526     0.12000
C638        C  0.12412244  0.26280884  0.82715918     0.23000
C639        C  0.13587562  0.21634459  0.80718310    -0.51800
C640        C  0.11711493  0.23897216  0.80004218     0.12200
C641        C  0.18032576  0.24483916  0.83098838    -0.51400
C642        C  0.16149520  0.26722290  0.82344142     0.12700
H643        H  0.13702991  0.21757895  0.90209964     0.17200
H644        H  0.10875293  0.28108812  0.82112619     0.03000
H645        H  0.13374598  0.19779671  0.79057829     0.17500
H646        H  0.20709033  0.24459459  0.82878567     0.17300
C647        C  0.84124623  0.23488777  0.84237195     0.89100
C648        C  0.81990082  0.25943276  0.83152498    -0.51100
C649        C  0.83777140  0.28194543  0.82365976     0.12000
C650        C  0.87543974  0.27793383  0.82785661     0.23000
C651        C  0.86545504  0.23118002  0.80875225    -0.51800
C652        C  0.88332240  0.25384321  0.80128995     0.12200
C653        C  0.86250972  0.24412608  0.87634747    -0.51400
C654        C  0.88067757  0.26648328  0.86873113     0.12700
H655        H  0.79315516  0.25884141  0.82905287     0.17200
H656        H  0.89012946  0.29625346  0.82156023     0.03000
H657        H  0.86837389  0.21245145  0.79264913     0.17500
H658        H  0.86456971  0.23298626  0.90326672     0.17300
O659        O  0.03397006  0.46334745  0.96898416    -0.70300
O660        O  0.96307397  0.47575849  0.71505393    -0.71300
O661        O  0.96351813  0.46582986  0.96760948    -0.59900
O662        O  0.03334806  0.47316713  0.71645462    -0.68300
O663        O  0.03516183  0.01748608  0.70620246    -0.67900
O664        O  0.96565402  0.01017079  0.95766161    -0.59100
O665        O  0.96514262  0.02005910  0.70471277    -0.71600
O666        O  0.03562130  0.00771342  0.95910654    -0.70400
Cu667      Cu  0.99839830  0.46790699  0.00908164     1.04600
Cu668      Cu  0.00045462  0.01535754  0.99817627     1.04300
C669        C  0.04598221  0.48380292  0.95178484     0.95900
C670        C  0.95303079  0.49981421  0.72221837     0.95000
C671        C  0.95357149  0.48704330  0.94994333     0.87200
C672        C  0.04519895  0.49640820  0.72408733     0.93400
C673        C  0.16050686  0.01881747  0.84723318     0.89100
C674        C  0.18021158  0.99338610  0.83634858    -0.51100
C675        C  0.16089278  0.47154802  0.82909002     0.12000
C676        C  0.12363034  0.47702173  0.83386464     0.23000
C677        C  0.13584515  0.02314555  0.81395177    -0.51800
C678        C  0.11657246  0.00112616  0.80711826     0.12200
C679        C  0.13937454  0.01067259  0.88171880    -0.51400
C680        C  0.11987426  0.48892603  0.87464616     0.12700
H681        H  0.20690755  0.49293982  0.83324390     0.17200
H682        H  0.10781488  0.45922579  0.82804704     0.03000
H683        H  0.13375270  0.04177072  0.79751809     0.17500
H684        H  0.13856205  0.02198944  0.90860084     0.17300
C685        C  0.84117978  0.03000652  0.84638680     0.89100
C686        C  0.86266991  0.02031971  0.88010119    -0.51100
C687        C  0.88032418  0.49739895  0.87229098     0.12000
C688        C  0.87454710  0.48596366  0.83158715     0.23000
C689        C  0.86509731  0.03288222  0.81235115    -0.51800
C690        C  0.88251157  0.00966133  0.80477811     0.12200
C691        C  0.81936523  0.00595868  0.83592743    -0.51400
C692        C  0.83687805  0.48294334  0.82793759     0.12700
H693        H  0.86499977  0.03136384  0.90708774     0.17200
H694        H  0.88888273  0.46720405  0.82519471     0.03000
H695        H  0.86810895  0.05142671  0.79605128     0.17500
H696        H  0.79261730  0.00724340  0.83373824     0.17300
O697        O  0.74061820  0.16415713  0.96444531    -0.70300
O698        O  0.79583474  0.10520423  0.91639535    -0.71300
O699        O  0.79563016  0.16264605  0.91419823    -0.59900
O700        O  0.74081795  0.10675038  0.96690352    -0.68300
O701        O  0.70718619  0.10592268  0.91609743    -0.67900
O702        O  0.76196811  0.16187682  0.86341406    -0.59100
O703        O  0.76212796  0.10443989  0.86566301    -0.71600
O704        O  0.70701001  0.16319111  0.91362267    -0.70400
Cu705      Cu  0.76945852  0.13470811  0.94226692     1.04600
Cu706      Cu  0.73338943  0.13381572  0.88792449     1.04300
C707        C  0.71518736  0.17292832  0.94634192     0.95900
C708        C  0.78754076  0.09554312  0.88363102     0.95000
C709        C  0.78727072  0.17115187  0.88079921     0.87200
C710        C  0.71538277  0.09760203  0.94965084     0.93400
O711        O  0.73664336  0.35627827  0.69555412    -0.70300
O712        O  0.79349733  0.41205975  0.74694038    -0.71300
O713        O  0.79338714  0.35471836  0.74470235    -0.59900
O714        O  0.73696632  0.41363151  0.69789979    -0.68300
O715        O  0.70430659  0.41304120  0.74923467    -0.67900
O716        O  0.76072374  0.35417070  0.79602613    -0.59100
O717        O  0.76078883  0.41146300  0.79823796    -0.71600
O718        O  0.70399912  0.35570743  0.74689983    -0.70400
Cu719      Cu  0.76626774  0.38416632  0.71944697     1.04600
Cu720      Cu  0.73130445  0.38354855  0.77439327     1.04300
C721        C  0.71131665  0.34740172  0.71309707     0.95900
C722        C  0.78601152  0.42046144  0.78065177     0.95000
C723        C  0.78604642  0.34541909  0.77786871     0.87200
C724        C  0.71183835  0.42254745  0.71625913     0.93400
O725        O  0.26886980  0.09157672  0.96197800    -0.70300
O726        O  0.21149282  0.14865447  0.91271318    -0.71300
O727        O  0.21185106  0.09134681  0.91438138    -0.59900
O728        O  0.26842144  0.14903905  0.96061575    -0.68300
O729        O  0.30019270  0.14830055  0.90850103    -0.67900
O730        O  0.24349821  0.09021084  0.86216559    -0.59100
O731        O  0.24307533  0.14772979  0.86045328    -0.71600
O732        O  0.30070912  0.09063381  0.90993363    -0.70400
Cu733      Cu  0.23908151  0.12019054  0.93923935     1.04600
Cu734      Cu  0.27304643  0.11919738  0.88341907     1.04300
C735        C  0.29359503  0.08201046  0.94354570     0.95900
C736        C  0.21823604  0.15708791  0.87890588     0.95000
C737        C  0.21877751  0.08170874  0.88120952     0.87200
C738        C  0.29300165  0.15785354  0.94170341     0.93400
O739        O  0.28882288  0.34110321  0.74363565    -0.70300
O740        O  0.23388163  0.39793338  0.79662965    -0.71300
O741        O  0.23441827  0.34064471  0.79515517    -0.59900
O742        O  0.28825613  0.39830997  0.74497300    -0.68300
O743        O  0.25373182  0.39905549  0.69498780    -0.67900
O744        O  0.19972792  0.34128526  0.74532097    -0.59100
O745        O  0.19921813  0.39871943  0.74678296    -0.71600
O746        O  0.25428220  0.34169025  0.69366798    -0.70400
Cu747      Cu  0.26253509  0.36948148  0.77185186     1.04600
Cu748      Cu  0.22547671  0.37021349  0.71843521     1.04300
C749        C  0.28029200  0.33261112  0.71032692     0.95900
C750        C  0.20795928  0.40720064  0.78005202     0.95000
C751        C  0.20865813  0.33193938  0.77807754     0.87200
C752        C  0.27959958  0.40756659  0.71207535     0.93400
C753        C  0.82106179  0.45909096  0.81309961    -0.10600
C754        C  0.80585274  0.44076779  0.79879766    -0.12200
C755        C  0.82239488  0.05464698  0.85582795    -0.10600
C756        C  0.80669543  0.07388425  0.86721481    -0.12200
C757        C  0.17467294  0.44682059  0.81368727    -0.10600
C758        C  0.18882878  0.42795629  0.79880953    -0.12200
C759        C  0.18135773  0.04221138  0.85552275    -0.10600
C760        C  0.19861016  0.06065034  0.86562733    -0.12200
C761        C  0.07032302  0.49885582  0.75314184    -0.10600
C762        C  0.09150003  0.50043321  0.77754694    -0.12200
C763        C  0.09406874  0.48165265  0.90105433    -0.10600
C764        C  0.07189627  0.48033790  0.92405162    -0.12200
C765        C  0.90595241  0.48817532  0.89817089    -0.10600
C766        C  0.92794678  0.48535242  0.92138234    -0.12200
C767        C  0.92777439  0.50420136  0.75049707    -0.10600
C768        C  0.90685319  0.00741187  0.77474391    -0.12200
C769        C  0.82206556  0.21079991  0.85156958    -0.10600
C770        C  0.80621625  0.19203372  0.86315979    -0.12200
C771        C  0.82209278  0.30613114  0.80878610    -0.10600
C772        C  0.80639662  0.32461474  0.79492275    -0.12200
C773        C  0.17581913  0.29181644  0.80933816    -0.10600
C774        C  0.18991193  0.31084611  0.79562718    -0.12200
C775        C  0.19774573  0.17774035  0.86180701    -0.10600
C776        C  0.18047090  0.19607844  0.85031269    -0.12200
C777        C  0.07130045  0.24420652  0.74585533    -0.10600
C778        C  0.09241945  0.24070903  0.77003021    -0.12200
C779        C  0.07232635  0.26305559  0.91718930    -0.10600
C780        C  0.09411965  0.25981819  0.89404633    -0.12200
C781        C  0.92917648  0.27510686  0.91772007    -0.10600
C782        C  0.90692713  0.27429794  0.89452445    -0.12200
C783        C  0.92907397  0.25618972  0.74719487    -0.10600
C784        C  0.90805716  0.25493801  0.77161587    -0.12200
C785        C  0.67579329  0.30910798  0.68046744    -0.10600
C786        C  0.69110752  0.32737321  0.69480530    -0.12200
C787        C  0.69570050  0.19447199  0.96242855    -0.10600
C788        C  0.67908489  0.21343694  0.97287997    -0.12200
C789        C  0.31219870  0.17945190  0.95753996    -0.10600
C790        C  0.32695877  0.19898103  0.96889855    -0.12200
C791        C  0.31657252  0.29437046  0.67755623    -0.10600
C792        C  0.30018087  0.31232394  0.69159884    -0.12200
C793        C  0.42598026  0.27234312  0.90430055    -0.10600
C794        C  0.40413845  0.26899174  0.92722140    -0.12200
C795        C  0.42799543  0.25371702  0.74168779    -0.10600
C796        C  0.40725779  0.25001276  0.71719232    -0.12200
C797        C  0.56987275  0.27796394  0.90531246    -0.10600
C798        C  0.59213798  0.27643436  0.92847305    -0.12200
C799        C  0.59166721  0.25816119  0.71858664    -0.10600
C800        C  0.57047844  0.25987770  0.74279343    -0.12200
C801        C  0.69592153  0.07724053  0.96777669    -0.10600
C802        C  0.67942422  0.05902602  0.97991800    -0.12200
C803        C  0.67711655  0.46323788  0.68723601    -0.10600
C804        C  0.69214479  0.44400573  0.69992191    -0.12200
C805        C  0.29933345  0.42796776  0.69430155    -0.10600
C806        C  0.31674954  0.44564502  0.68219940    -0.12200
C807        C  0.31292261  0.06052434  0.96040305    -0.10600
C808        C  0.32671865  0.04088345  0.97369284    -0.12200
C809        C  0.40749597  0.00393609  0.72468644    -0.10600
C810        C  0.42948259  0.00568308  0.74803625    -0.12200
C811        C  0.40657948  0.48433356  0.93437959    -0.10600
C812        C  0.42782882  0.48645736  0.91031798    -0.12200
C813        C  0.57081272  0.99422922  0.91472741    -0.10600
C814        C  0.59276332  0.49657028  0.93801383    -0.12200
C815        C  0.59338373  0.01586473  0.72828842    -0.10600
C816        C  0.57228259  0.01332489  0.75241885    -0.12200
O817        O  0.53234758  0.51870258  0.21150087    -0.70300
O818        O  0.46346881  0.52522313  0.12846673    -0.71300
O819        O  0.46239894  0.51511950  0.20894926    -0.59900
O820        O  0.53349819  0.52877783  0.13102252    -0.68300
O821        O  0.53786916  0.98453886  0.12048828    -0.67900
O822        O  0.46673390  0.97087957  0.19842705    -0.59100
O823        O  0.46790298  0.98098467  0.11789202    -0.71600
O824        O  0.53683622  0.97445800  0.20101443    -0.70400
Cu825      Cu  0.49778562  0.52350798  0.17039771     1.04600
Cu826      Cu  0.50248046  0.97615421  0.15904474     1.04300
C827        C  0.54546538  0.49573236  0.21913898     0.95900
C828        C  0.45482300  0.00398112  0.11029292     0.95000
C829        C  0.45338610  0.99094273  0.21581873     0.87200
C830        C  0.54684257  0.50872337  0.11361442     0.93400
C831        C  0.33841103  0.96825107  0.00593210     0.89100
C832        C  0.31961369  0.99427563  0.99557584    -0.51100
C833        C  0.33978339  0.51542552  0.32100051     0.12000
C834        C  0.37687731  0.50873758  0.32458471     0.23000
C835        C  0.36190226  0.96297251  0.30520652    -0.51800
C836        C  0.38202338  0.98435634  0.29770225     0.12200
C837        C  0.36094767  0.97582495  0.03966981    -0.51400
C838        C  0.38122407  0.49687696  0.03191313     0.12700
H839        H  0.29288251  0.49561066  0.32692319     0.17200
H840        H  0.39336120  0.52599983  0.31829269     0.03000
H841        H  0.36269733  0.94421276  0.28888452     0.17500
H842        H  0.36186872  0.96472383  0.06668971     0.17300
C843        C  0.65956598  0.53537314  0.32284004     0.89100
C844        C  0.63729651  0.52683347  0.28934413    -0.51100
C845        C  0.61874005  0.00474496  0.29717995     0.12000
C846        C  0.62444467  0.99291924  0.00432831     0.23000
C847        C  0.63617724  0.53930216  0.02390989    -0.51800
C848        C  0.61779205  0.51691953  0.03150068     0.12200
C849        C  0.68039469  0.51029835  0.33264757    -0.51400
C850        C  0.66200391  0.98809849  0.00726228     0.12700
H851        H  0.63525550  0.53800066  0.26245010     0.17200
H852        H  0.60936288  0.97482692  0.01070140     0.03000
H853        H  0.63410676  0.55795833  0.04034398     0.17500
H854        H  0.70720773  0.51027036  0.33413810     0.17300
O855        O  0.46479085  0.74780591  0.20216375    -0.70300
O856        O  0.53550094  0.74102027  0.12221111    -0.71300
O857        O  0.53467757  0.75057035  0.20267512    -0.59900
O858        O  0.46551319  0.73807828  0.12172359    -0.68300
O859        O  0.46204585  0.78236336  0.11142656    -0.67900
O860        O  0.53172624  0.79493623  0.19290518    -0.59100
O861        O  0.53231028  0.78533914  0.11199999    -0.71600
O862        O  0.46130144  0.79215516  0.19231464    -0.70400
Cu863      Cu  0.50022710  0.74284793  0.16259895     1.04600
Cu864      Cu  0.49672520  0.79029484  0.15178423     1.04300
C865        C  0.45186906  0.77086045  0.20964706     0.95900
C866        C  0.54503289  0.76217576  0.10463887     0.95000
C867        C  0.54421876  0.77450184  0.21034820     0.87200
C868        C  0.45288284  0.75826090  0.10392883     0.93400
C869        C  0.34349604  0.72439429  0.31184146     0.89100
C870        C  0.36393935  0.73504007  0.27827214    -0.51100
C871        C  0.37934741  0.75875403  0.28616072     0.12000
C872        C  0.37259101  0.76993248  0.99345983     0.23000
C873        C  0.36770684  0.72269487  0.01273895    -0.51800
C874        C  0.38290554  0.74669116  0.02041497     0.12200
C875        C  0.31942869  0.74737067  0.32205060    -0.51400
C876        C  0.33469657  0.77118297  0.99672637     0.12700
H877        H  0.36731878  0.72408742  0.25134648     0.17200
H878        H  0.38509911  0.78933907  0.99987223     0.03000
H879        H  0.37254894  0.70433126  0.02904513     0.17500
H880        H  0.29285531  0.74485065  0.32389691     0.17300
C881        C  0.65898813  0.73753111  0.31471448     0.89100
C882        C  0.67951470  0.76233634  0.32487056    -0.51100
C883        C  0.66090725  0.78483006  0.99900971     0.12000
C884        C  0.62338661  0.78056319  0.99512609     0.23000
C885        C  0.63504313  0.73414092  0.01524485    -0.51800
C886        C  0.61641976  0.75679376  0.02226506     0.12200
C887        C  0.63724810  0.74618945  0.28062770    -0.51400
C888        C  0.61837439  0.76857949  0.28786346     0.12700
H889        H  0.70627799  0.76190561  0.32735835     0.17200
H890        H  0.60810960  0.79888578  0.00111553     0.03000
H891        H  0.63281859  0.71562060  0.03179131     0.17500
H892        H  0.63557163  0.73476158  0.25390081     0.17300
O893        O  0.03773241  0.77416473  0.04383642    -0.70300
O894        O  0.96802813  0.79015434  0.29681099    -0.71300
O895        O  0.96768973  0.78022035  0.04432801    -0.60700
O896        O  0.03816054  0.78411536  0.29645323    -0.68300
O897        O  0.03288075  0.73999135  0.28609976    -0.67900
O898        O  0.96278802  0.73610307  0.03367008    -0.59100
O899        O  0.96320882  0.74599172  0.28655555    -0.71600
O900        O  0.03260283  0.73007918  0.03313644    -0.70400
Cu901      Cu  0.00307636  0.78374285  0.33740898     1.04600
Cu902      Cu  0.99767078  0.73651830  0.32609698     1.04300
C903        C  0.04614880  0.74969105  0.05089781     0.95900
C904        C  0.95465002  0.77036583  0.27921116     0.95000
C905        C  0.95423193  0.75757121  0.05163838     0.87200
C906        C  0.04661249  0.76249533  0.27874557     0.93400
C907        C  0.16003318  0.71992519  0.17453421     0.89100
C908        C  0.13836965  0.72868902  0.20849103    -0.51100
C909        C  0.11946997  0.75102032  0.20104139     0.12000
C910        C  0.12415617  0.76279497  0.16049458     0.23000
C911        C  0.13591051  0.71632922  0.14052710    -0.51800
C912        C  0.11715016  0.73895620  0.13338140     0.12200
C913        C  0.18035937  0.74482598  0.16433221    -0.51400
C914        C  0.16152918  0.76720902  0.15677977     0.12700
H915        H  0.13705519  0.71756988  0.23544205     0.17200
H916        H  0.10878710  0.78107368  0.15445699     0.03000
H917        H  0.13378015  0.69777941  0.12392623     0.17500
H918        H  0.20712433  0.74458141  0.16213231     0.17300
C919        C  0.84121676  0.73488975  0.17569327     0.89100
C920        C  0.81987439  0.75943557  0.16484217    -0.51100
C921        C  0.83774769  0.78194607  0.15697269     0.12000
C922        C  0.87541602  0.77793120  0.16116919     0.23000
C923        C  0.86542534  0.73117654  0.14207443    -0.51800
C924        C  0.88329666  0.75383698  0.13460852     0.12200
C925        C  0.86248232  0.74412937  0.20966686    -0.51400
C926        C  0.88065351  0.76648418  0.20204543     0.12700
H927        H  0.79312838  0.75884668  0.16237265     0.17200
H928        H  0.89010846  0.79624867  0.15486918     0.03000
H929        H  0.86834505  0.71244507  0.12597866     0.17500
H930        H  0.86454247  0.73299125  0.23658713     0.17300
O931        O  0.03397726  0.96337063  0.30230806    -0.70300
O932        O  0.96305846  0.97571705  0.04839895    -0.71300
O933        O  0.96352684  0.96585475  0.30093255    -0.59900
O934        O  0.03333540  0.97312016  0.04980164    -0.68300
O935        O  0.03515188  0.51743676  0.03952986    -0.67900
O936        O  0.96566248  0.51019548  0.29098093    -0.59100
O937        O  0.96513408  0.52001504  0.03803721    -0.71600
O938        O  0.03563053  0.50773636  0.29242572    -0.70400
Cu939      Cu  0.99840694  0.96793270  0.34240332     1.04600
Cu940      Cu  0.00046344  0.51538314  0.33149471     1.04300
C941        C  0.04599076  0.98382483  0.28510778     0.95900
C942        C  0.95301844  0.99977573  0.05555148     0.95000
C943        C  0.95357957  0.98706756  0.28326547     0.87200
C944        C  0.04518825  0.99636256  0.05742387     0.93400
C945        C  0.16051387  0.51881559  0.18053879     0.89100
C946        C  0.18021811  0.49338260  0.16966241    -0.51100
C947        C  0.16089923  0.97154242  0.16241855     0.12000
C948        C  0.12363768  0.97701523  0.16719705     0.23000
C949        C  0.13584625  0.52313472  0.14725924    -0.51800
C950        C  0.11657392  0.50111211  0.14044009     0.12200
C951        C  0.13938647  0.51067752  0.21503195    -0.51400
C952        C  0.11988646  0.98892899  0.20797269     0.12700
H953        H  0.20691363  0.99293612  0.16655298     0.17200
H954        H  0.10782291  0.95921701  0.16139180     0.03000
H955        H  0.13374993  0.54175567  0.13081703     0.17500
H956        H  0.13857546  0.52200100  0.24190826     0.17300
C957        C  0.84117677  0.53001569  0.17971437     0.89100
C958        C  0.86266812  0.52033272  0.21342967    -0.51100
C959        C  0.88031998  0.99741013  0.20562487     0.12000
C960        C  0.87453867  0.98596840  0.16492568     0.23000
C961        C  0.86509313  0.53288436  0.14567497    -0.51800
C962        C  0.88250422  0.50966036  0.13810834     0.12200
C963        C  0.81935943  0.50596773  0.16926357    -0.51400
C964        C  0.83686960  0.98295045  0.16127812     0.12700
H965        H  0.86500249  0.53138183  0.24041212     0.17200
H966        H  0.88887199  0.96720680  0.15853804     0.03000
H967        H  0.86810565  0.55142559  0.12936804     0.17500
H968        H  0.79261149  0.50725472  0.16707188     0.17300
O969        O  0.74060312  0.66415766  0.29777783    -0.70300
O970        O  0.79582340  0.60520679  0.24972795    -0.71300
O971        O  0.79560968  0.66264831  0.24752637    -0.59900
O972        O  0.74080949  0.60675015  0.30024408    -0.68300
O973        O  0.70717476  0.60591648  0.24944086    -0.67900
O974        O  0.76194307  0.66187465  0.19674647    -0.59100
O975        O  0.76211297  0.60443801  0.19899891    -0.71600
O976        O  0.70699044  0.66318495  0.24695949    -0.70400
Cu977      Cu  0.76944466  0.63470926  0.27560056     1.04600
Cu978      Cu  0.73337141  0.63381101  0.22126208     1.04300
C979        C  0.71517125  0.67292684  0.27967448     0.95900
C980        C  0.78752963  0.59554541  0.21696362     0.95000
C981        C  0.78724548  0.67115302  0.21412840     0.87200
C982        C  0.71537414  0.59759881  0.28299487     0.93400
O983        O  0.73663111  0.85629099  0.02888120    -0.70300
O984        O  0.79349045  0.91207190  0.08026283    -0.71300
O985        O  0.79337340  0.85472924  0.07802856    -0.59900
O986        O  0.73696204  0.91364517  0.03121873    -0.68300
O987        O  0.70429967  0.91306048  0.08255152    -0.67900
O988        O  0.76071004  0.85418648  0.12935261    -0.59100
O989        O  0.76077881  0.91147964  0.13155803    -0.71600
O990        O  0.70398647  0.85572530  0.08022694    -0.70400
Cu991      Cu  0.76625838  0.88417864  0.05277061     1.04600
Cu992      Cu  0.73129359  0.88356634  0.10771584     1.04300
C993        C  0.71130451  0.84741609  0.04642625     0.95900
C994        C  0.78600316  0.92047568  0.11397297     0.95000
C995        C  0.78603087  0.84543082  0.11119480     0.87200
C996        C  0.71183486  0.92256487  0.04957571     0.93400
O997        O  0.26890174  0.59154314  0.29529703    -0.70300
O998        O  0.21152554  0.64863170  0.24605344    -0.71300
O999        O  0.21188145  0.59132360  0.24769868    -0.59900
O1000       O  0.26845417  0.64900807  0.29395706    -0.68300
O1001       O  0.30022510  0.64827969  0.24184241    -0.67900
O1002       O  0.24352861  0.59019604  0.19548301    -0.59100
O1003       O  0.24310788  0.64771587  0.19379319    -0.71600
O1004       O  0.30074198  0.59060987  0.24325331    -0.70400
Cu1005     Cu  0.23911392  0.62016217  0.27256896     1.04600
Cu1006     Cu  0.27307887  0.61917894  0.21674900     1.04300
C1007       C  0.29362743  0.58198015  0.27686196     0.95900
C1008       C  0.21826863  0.65707110  0.21224903     0.95000
C1009       C  0.21880531  0.58169274  0.21452177     0.87200
C1010       C  0.29303229  0.65782890  0.27504679     0.93400
O1011       O  0.28883330  0.84111371  0.07695049    -0.70300
O1012       O  0.23388857  0.89792938  0.12996296    -0.71300
O1013       O  0.23443871  0.84064108  0.12848194    -0.59900
O1014       O  0.28825232  0.89831928  0.07829324    -0.68300
O1015       O  0.25371992  0.89906062  0.02831547    -0.67900
O1016       O  0.19973880  0.84127915  0.07865678    -0.59100
O1017       O  0.19921706  0.89871288  0.08012347    -0.71600
O1018       O  0.25428352  0.84169607  0.02699112    -0.70400
Cu1019     Cu  0.26254380  0.86948469  0.10517547     1.04600
Cu1020     Cu  0.22547600  0.87021303  0.05176738     1.04300
C1021       C  0.28029843  0.83262124  0.04364369     0.95900
C1022       C  0.20796215  0.90719358  0.11339115     0.95000
C1023       C  0.20867771  0.83193227  0.11140967     0.87200
C1024       C  0.27958858  0.90757504  0.04539753     0.93400
C1025       C  0.82105262  0.95910122  0.14643138    -0.10600
C1026       C  0.80584488  0.94078064  0.13212092    -0.12200
C1027       C  0.82239294  0.55465746  0.18915211    -0.10600
C1028       C  0.80668985  0.57389168  0.20054272    -0.12200
C1029       C  0.17467791  0.94681229  0.14702642    -0.10600
C1030       C  0.18883250  0.92794683  0.13215200    -0.12200
C1031       C  0.18136834  0.54220999  0.18881847    -0.10600
C1032       C  0.19862971  0.56064285  0.19892722    -0.12200
C1033       C  0.07031499  0.99881769  0.08647525    -0.10600
C1034       C  0.09149616  0.00040764  0.11087441    -0.12200
C1035       C  0.09408060  0.98166417  0.23438377    -0.10600
C1036       C  0.07190622  0.98035623  0.25737856    -0.12200
C1037       C  0.90595387  0.98819288  0.23150123    -0.10600
C1038       C  0.92795254  0.98537491  0.25470802    -0.12200
C1039       C  0.92776208  0.00417447  0.08382702    -0.10600
C1040       C  0.90684230  0.50739974  0.10807160    -0.12200
C1041       C  0.82203380  0.71080374  0.18489516    -0.10600
C1042       C  0.80618599  0.69203700  0.19648663    -0.12200
C1043       C  0.82207075  0.80613463  0.14210409    -0.10600
C1044       C  0.80637671  0.82462195  0.12824646    -0.12200
C1045       C  0.17585271  0.79180223  0.14267366    -0.10600
C1046       C  0.18994027  0.81083417  0.12896110    -0.12200
C1047       C  0.19777818  0.67772686  0.19515692    -0.10600
C1048       C  0.18050359  0.69606590  0.18366382    -0.12200
C1049       C  0.07132456  0.74418970  0.07920816    -0.10600
C1050       C  0.09245003  0.74069006  0.10337463    -0.12200
C1051       C  0.07233522  0.76304425  0.25050055    -0.10600
C1052       C  0.09413907  0.75980563  0.22737115    -0.12200
C1053       C  0.92916622  0.77510339  0.25101852    -0.10600
C1054       C  0.90691061  0.77429540  0.22783086    -0.12200
C1055       C  0.92907326  0.75617184  0.08054095    -0.10600
C1056       C  0.90804349  0.75492308  0.10494718    -0.12200
C1057       C  0.67578475  0.80911624  0.01380768    -0.10600
C1058       C  0.69109745  0.82738396  0.02814079    -0.12200
C1059       C  0.69568931  0.69447576  0.29575334    -0.10600
C1060       C  0.67907911  0.71344582  0.30619648    -0.12200
C1061       C  0.31222099  0.67943329  0.29088523    -0.10600
C1062       C  0.32696929  0.69896989  0.30224215    -0.12200
C1063       C  0.31657886  0.79438170  0.01087502    -0.10600
C1064       C  0.30018788  0.81233690  0.02491273    -0.12200
C1065       C  0.42595965  0.77235200  0.23763189    -0.10600
C1066       C  0.40411468  0.76900235  0.26055056    -0.12200
C1067       C  0.42798642  0.75371351  0.07502758    -0.10600
C1068       C  0.40724825  0.75000907  0.05053319    -0.12200
C1069       C  0.56986187  0.77797662  0.23864507    -0.10600
C1070       C  0.59213063  0.77644694  0.26180071    -0.12200
C1071       C  0.59166026  0.75815962  0.05192308    -0.10600
C1072       C  0.57047199  0.75987616  0.07613172    -0.12200
C1073       C  0.69591542  0.57723738  0.30112485    -0.10600
C1074       C  0.67941830  0.55902262  0.31326591    -0.12200
C1075       C  0.67712121  0.96325736  0.02054376    -0.10600
C1076       C  0.69214666  0.94402534  0.03323501    -0.12200
C1077       C  0.29931631  0.92797800  0.02761883    -0.10600
C1078       C  0.31673118  0.94565556  0.01551537    -0.12200
C1079       C  0.31295538  0.56049119  0.29371271    -0.10600
C1080       C  0.32675061  0.54084948  0.30700182    -0.12200
C1081       C  0.40750789  0.50390749  0.05801167    -0.10600
C1082       C  0.42949892  0.50564258  0.08135726    -0.12200
C1083       C  0.40660470  0.98428401  0.26770903    -0.10600
C1084       C  0.42785146  0.98640547  0.24364299    -0.12200
C1085       C  0.57082572  0.49421207  0.24805367    -0.10600
C1086       C  0.59277054  0.99655826  0.27134667    -0.12200
C1087       C  0.59338365  0.51586770  0.06159704    -0.10600
C1088       C  0.57228820  0.51331825  0.08573251    -0.12200
O1089       O  0.53235269  0.51870951  0.54485040    -0.70300
O1090       O  0.46347388  0.52521728  0.46180976    -0.71300
O1091       O  0.46240467  0.51512715  0.54229759    -0.59900
O1092       O  0.53350448  0.52877161  0.46436829    -0.68300
O1093       O  0.53787459  0.98453080  0.45384836    -0.67900
O1094       O  0.46673952  0.97088547  0.53178976    -0.59100
O1095       O  0.46790831  0.98097705  0.45125112    -0.71600
O1096       O  0.53684028  0.97446342  0.53437759    -0.70400
Cu1097     Cu  0.49779111  0.52350884  0.50374397     1.04600
Cu1098     Cu  0.50248541  0.97615321  0.49240669     1.04300
C1099       C  0.54547002  0.49574021  0.55249554     0.95900
C1100       C  0.45482888  0.00397209  0.44364210     0.95000
C1101       C  0.45339230  0.99095155  0.54917485     0.87200
C1102       C  0.54684816  0.50871420  0.44696644     0.93400
C1103       C  0.33843037  0.96822078  0.33926523     0.89100
C1104       C  0.31963826  0.99424512  0.32889584    -0.51100
C1105       C  0.33976826  0.51543978  0.65431444     0.12000
C1106       C  0.37686290  0.50876202  0.65791574     0.23000
C1107       C  0.36191006  0.96298752  0.63856055    -0.51800
C1108       C  0.38202460  0.98437400  0.63105060     0.12200
C1109       C  0.36096458  0.97579924  0.37300344    -0.51400
C1110       C  0.38124520  0.49684791  0.36524197     0.12700
H1111       H  0.29287251  0.49561557  0.66023263     0.17200
H1112       H  0.39334202  0.52602651  0.65161890     0.03000
H1113       H  0.36271624  0.94422334  0.62224999     0.17500
H1114       H  0.36187933  0.96470448  0.40002866     0.17300
C1115       C  0.65958497  0.53536366  0.65620212     0.89100
C1116       C  0.63731419  0.52683050  0.62270354    -0.51100
C1117       C  0.61874825  0.00474691  0.63053700     0.12000
C1118       C  0.62444541  0.99291019  0.33766710     0.23000
C1119       C  0.63617225  0.53929322  0.35725423    -0.51800
C1120       C  0.61778974  0.51690860  0.36484239     0.12200
C1121       C  0.68040333  0.51028363  0.66601000    -0.51400
C1122       C  0.66200525  0.98809244  0.34060190     0.12700
H1123       H  0.63527908  0.53799868  0.59580976     0.17200
H1124       H  0.60936600  0.97481623  0.34403814     0.03000
H1125       H  0.63410051  0.55794787  0.37369141     0.17500
H1126       H  0.70721676  0.51024830  0.66750091     0.17300
O1127       O  0.46480131  0.74780039  0.53548442    -0.70300
O1128       O  0.53550029  0.74101540  0.45552104    -0.71300
O1129       O  0.53468919  0.75054642  0.53598934    -0.59900
O1130       O  0.46551098  0.73808866  0.45503913    -0.68300
O1131       O  0.46205646  0.78237636  0.44476067    -0.67900
O1132       O  0.53175271  0.79491481  0.52623858    -0.59100
O1133       O  0.53232230  0.78533724  0.44533013    -0.71600
O1134       O  0.46132764  0.79215245  0.52565391    -0.70400
Cu1135     Cu  0.50023124  0.74284170  0.49591318     1.04600
Cu1136     Cu  0.49674445  0.79029158  0.48511910     1.04300
C1137       C  0.45188995  0.77085692  0.54297918     0.95900
C1138       C  0.54503733  0.76217318  0.43795829     0.95000
C1139       C  0.54423994  0.77447389  0.54367176     0.87200
C1140       C  0.45288496  0.75827718  0.43725351     0.93400
C1141       C  0.34351365  0.72439501  0.64515859     0.89100
C1142       C  0.36396141  0.73504276  0.61159497    -0.51100
C1143       C  0.37937366  0.75875307  0.61949335     0.12000
C1144       C  0.37256449  0.76994223  0.32679013     0.23000
C1145       C  0.36770962  0.72270358  0.34607435    -0.51800
C1146       C  0.38289641  0.74670607  0.35374588     0.12200
C1147       C  0.31945046  0.74737319  0.65537254    -0.51400
C1148       C  0.33466914  0.77117871  0.33006509     0.12700
H1149       H  0.36733972  0.72409444  0.58466565     0.17200
H1150       H  0.38506257  0.78935378  0.33319851     0.03000
H1151       H  0.37256507  0.70434237  0.36238059     0.17500
H1152       H  0.29287654  0.74485735  0.65721394     0.17300
C1153       C  0.65900310  0.73750767  0.64808400     0.89100
C1154       C  0.67952653  0.76231640  0.65822898    -0.51100
C1155       C  0.66090727  0.78483967  0.33232849     0.12000
C1156       C  0.62338637  0.78057340  0.32844818     0.23000
C1157       C  0.63504353  0.73415038  0.34856194    -0.51800
C1158       C  0.61642146  0.75680274  0.35558514     0.12200
C1159       C  0.63726781  0.74615436  0.61398688    -0.51400
C1160       C  0.61839128  0.76854583  0.62120429     0.12700
H1161       H  0.70628947  0.76188684  0.66072442     0.17200
H1162       H  0.60810966  0.79889561  0.33444068     0.03000
H1163       H  0.63281907  0.71562929  0.36510700     0.17500
H1164       H  0.63559687  0.73471832  0.58726688     0.17300
O1165       O  0.03772395  0.77415548  0.37713165    -0.70300
O1166       O  0.96801466  0.79014922  0.63013313    -0.71300
O1167       O  0.96768138  0.78021251  0.37762292    -0.60700
O1168       O  0.03814636  0.78411134  0.62977346    -0.68300
O1169       O  0.03286672  0.73998451  0.61944558    -0.67900
O1170       O  0.96277818  0.73609598  0.36696092    -0.59100
O1171       O  0.96319539  0.74598374  0.61990391    -0.71600
O1172       O  0.03259256  0.73007016  0.36642995    -0.70400
Cu1173     Cu  0.00306656  0.78375020  0.67073287     1.04600
Cu1174     Cu  0.99766042  0.73652249  0.65944859     1.04300
C1175       C  0.04613863  0.74968145  0.38419257     0.95900
C1176       C  0.95463651  0.77035564  0.61254462     0.95000
C1177       C  0.95422315  0.75756315  0.38493233     0.87200
C1178       C  0.04659611  0.76248685  0.61207595     0.93400
C1179       C  0.16001603  0.71992858  0.50784094     0.89100
C1180       C  0.13834554  0.72868078  0.54179744    -0.51100
C1181       C  0.11943709  0.75100767  0.53435131     0.12000
C1182       C  0.12412086  0.76278897  0.49380825     0.23000
C1183       C  0.13589899  0.71632938  0.47382972    -0.51800
C1184       C  0.11712904  0.73895145  0.46668758     0.12200
C1185       C  0.18033147  0.74483691  0.49764895    -0.51400
C1186       C  0.16149175  0.76721509  0.49010099     0.12700
H1187       H  0.13703656  0.71755938  0.56874715     0.17200
H1188       H  0.10874405  0.78106385  0.48777362     0.03000
H1189       H  0.13377975  0.69778141  0.45722325     0.17500
H1190       H  0.20709669  0.74460133  0.49545427     0.17300
C1191       C  0.84121414  0.73487055  0.50899828     0.89100
C1192       C  0.81987480  0.75941865  0.49814918    -0.51100
C1193       C  0.83775075  0.78192844  0.49028372     0.12000
C1194       C  0.87541853  0.77791081  0.49448143     0.23000
C1195       C  0.86542352  0.73115807  0.47537920    -0.51800
C1196       C  0.88329728  0.75381823  0.46791642     0.12200
C1197       C  0.86247968  0.74410686  0.54297382    -0.51400
C1198       C  0.88065339  0.76646082  0.53535672     0.12700
H1199       H  0.79312873  0.75883214  0.49567912     0.17200
H1200       H  0.89011269  0.79622797  0.48818486     0.03000
H1201       H  0.86834048  0.71242780  0.45927954     0.17500
H1202       H  0.86453610  0.73296801  0.56989367     0.17300
O1203       O  0.03398237  0.96341021  0.63563732    -0.70300
O1204       O  0.96306881  0.97574348  0.38171975    -0.71300
O1205       O  0.96353467  0.96588839  0.63426213    -0.59900
O1206       O  0.03334366  0.97314697  0.38312113    -0.68300
O1207       O  0.03516037  0.51746350  0.37284714    -0.67900
O1208       O  0.96566342  0.51023152  0.62432987    -0.59100
O1209       O  0.96514260  0.52004151  0.37135649    -0.71600
O1210       O  0.03563179  0.50777804  0.62577396    -0.70400
Cu1211     Cu  0.99841272  0.96796007  0.67573432     1.04600
Cu1212     Cu  0.00046413  0.51541316  0.66484775     1.04300
C1213       C  0.04599286  0.98386857  0.61844453     0.95900
C1214       C  0.95302798  0.99980186  0.38887147     0.95000
C1215       C  0.95358556  0.98710350  0.61660243     0.87200
C1216       C  0.04519625  0.99638944  0.39074191     0.93400
C1217       C  0.16051709  0.51884192  0.51385305     0.89100
C1218       C  0.18021746  0.49340454  0.50298812    -0.51100
C1219       C  0.16089503  0.97156547  0.49575148     0.12000
C1220       C  0.12363392  0.97704427  0.50052576     0.23000
C1221       C  0.13585274  0.52315859  0.48057112    -0.51800
C1222       C  0.11657674  0.50113774  0.47375951     0.12200
C1223       C  0.13938699  0.51071388  0.54834837    -0.51400
C1224       C  0.11988307  0.98896671  0.54129663     0.12700
H1225       H  0.20691305  0.99295478  0.49987961     0.17200
H1226       H  0.10781562  0.95924725  0.49472599     0.03000
H1227       H  0.13376099  0.54177719  0.46412150     0.17500
H1228       H  0.13857771  0.52204261  0.57522037     0.17300
C1229       C  0.84117008  0.53001318  0.51302551     0.89100
C1230       C  0.86266675  0.52034279  0.54674295    -0.51100
C1231       C  0.88033135  0.99742570  0.53894422     0.12000
C1232       C  0.87455594  0.98597627  0.49824783     0.23000
C1233       C  0.86508383  0.53288678  0.47898535    -0.51800
C1234       C  0.88250792  0.50966869  0.47142445     0.12200
C1235       C  0.81936577  0.50595616  0.50258203    -0.51400
C1236       C  0.83688800  0.98294406  0.49460230     0.12700
H1237       H  0.86499434  0.53139610  0.57372278     0.17200
H1238       H  0.88889950  0.96721911  0.49186463     0.03000
H1239       H  0.86808630  0.55142765  0.46267445     0.17500
H1240       H  0.79261711  0.50723335  0.50039080     0.17300
O1241       O  0.74063209  0.66414100  0.63113736    -0.70300
O1242       O  0.79582860  0.60519385  0.58304573    -0.71300
O1243       O  0.79561808  0.66263536  0.58085071    -0.59900
O1244       O  0.74083830  0.60673430  0.63359374    -0.68300
O1245       O  0.70718338  0.60590507  0.58280838    -0.67900
O1246       O  0.76192950  0.66186586  0.53009049    -0.59100
O1247       O  0.76209737  0.60442984  0.53233497    -0.71600
O1248       O  0.70699857  0.66317143  0.58033745    -0.70400
Cu1249     Cu  0.76946349  0.63469470  0.60893786     1.04600
Cu1250     Cu  0.73336755  0.63380097  0.55461940     1.04300
C1251       C  0.71519159  0.67290973  0.61305017     0.95900
C1252       C  0.78752032  0.59553505  0.55028496     0.95000
C1253       C  0.78724098  0.67114142  0.54745745     0.87200
C1254       C  0.71539632  0.59758454  0.61635630     0.93400
O1255       O  0.73663658  0.85629242  0.36221165    -0.70300
O1256       O  0.79350694  0.91206378  0.41359563    -0.71300
O1257       O  0.79338217  0.85472196  0.41135302    -0.59900
O1258       O  0.73697312  0.91364552  0.36455807    -0.68300
O1259       O  0.70431534  0.91305991  0.41589477    -0.67900
O1260       O  0.76072234  0.85417768  0.46268001    -0.59100
O1261       O  0.76080052  0.91147037  0.46489518    -0.71600
O1262       O  0.70399507  0.85572522  0.41355999    -0.70400
Cu1263     Cu  0.76626866  0.88417546  0.38610242     1.04600
Cu1264     Cu  0.73130829  0.88356175  0.44105137     1.04300
C1265       C  0.71130987  0.84741830  0.37975711     0.95900
C1266       C  0.78602494  0.92046500  0.44730850     0.95000
C1267       C  0.78604083  0.84542142  0.44451841     0.87200
C1268       C  0.71184734  0.92256477  0.38291820     0.93400
O1269       O  0.26890052  0.59156087  0.62859427    -0.70300
O1270       O  0.21153402  0.64865319  0.57935390    -0.71300
O1271       O  0.21188412  0.59134815  0.58099625    -0.59900
O1272       O  0.26846150  0.64902402  0.62725612    -0.68300
O1273       O  0.30023321  0.64829400  0.57514154    -0.67900
O1274       O  0.24353214  0.59021877  0.52878100    -0.59100
O1275       O  0.24311566  0.64773625  0.52709302    -0.71600
O1276       O  0.30074203  0.59062483  0.57655151    -0.70400
Cu1277     Cu  0.23911840  0.62018243  0.60586753     1.04600
Cu1278     Cu  0.27308407  0.61919730  0.55004755     1.04300
C1279       C  0.29362391  0.58199469  0.61015897     0.95900
C1280       C  0.21827632  0.65709111  0.54554898     0.95000
C1281       C  0.21880844  0.58171730  0.54781983     0.87200
C1282       C  0.29304109  0.65784229  0.60834642     0.93400
O1283       O  0.28879763  0.84110294  0.41030347    -0.70300
O1284       O  0.23387165  0.89793717  0.46330918    -0.71300
O1285       O  0.23440031  0.84064856  0.46183321    -0.59900
O1286       O  0.28823889  0.89830921  0.41164059    -0.68300
O1287       O  0.25370812  0.89905747  0.36166136    -0.67900
O1288       O  0.19970310  0.84129352  0.41200567    -0.59100
O1289       O  0.19920206  0.89872637  0.41346814    -0.71600
O1290       O  0.25424984  0.84169214  0.36034255    -0.70400
Cu1291     Cu  0.26251756  0.86948321  0.43852514     1.04600
Cu1292     Cu  0.22545191  0.87021856  0.38511534     1.04300
C1293       C  0.28026131  0.83261134  0.37699635     0.95900
C1294       C  0.20794847  0.90720645  0.44673575     0.95000
C1295       C  0.20863738  0.83194539  0.44475926     0.87200
C1296       C  0.27958062  0.90756502  0.37874292     0.93400
C1297       C  0.82108105  0.95908803  0.47976286    -0.10600
C1298       C  0.80587222  0.94076647  0.46545639    -0.12200
C1299       C  0.82237529  0.55464930  0.52245797    -0.10600
C1300       C  0.80667207  0.57388189  0.53385186    -0.12200
C1301       C  0.17467055  0.94683189  0.48036577    -0.10600
C1302       C  0.18882319  0.92796382  0.46549484    -0.12200
C1303       C  0.18137337  0.54223481  0.52212332    -0.10600
C1304       C  0.19863397  0.56066830  0.53222693    -0.12200
C1305       C  0.07032165  0.99884435  0.41979302    -0.10600
C1306       C  0.09150115  0.00043270  0.44419325    -0.12200
C1307       C  0.09407657  0.98170984  0.56771111    -0.10600
C1308       C  0.07190497  0.98040532  0.59070992    -0.12200
C1309       C  0.90596826  0.98822122  0.56482548    -0.10600
C1310       C  0.92796386  0.98541141  0.58803818    -0.12200
C1311       C  0.92777080  0.00419838  0.41714624    -0.10600
C1312       C  0.90684878  0.50741612  0.44138999    -0.12200
C1313       C  0.82202739  0.71078599  0.51820100    -0.10600
C1314       C  0.80617855  0.69202257  0.52980282    -0.12200
C1315       C  0.82207679  0.80611937  0.47541879    -0.10600
C1316       C  0.80638510  0.82460933  0.46156473    -0.12200
C1317       C  0.17580654  0.79181512  0.47600962    -0.10600
C1318       C  0.18989451  0.81084984  0.46230690    -0.12200
C1319       C  0.19778187  0.67774253  0.52845575    -0.10600
C1320       C  0.18049783  0.69607586  0.51696551    -0.12200
C1321       C  0.07131206  0.74417949  0.41250468    -0.10600
C1322       C  0.09243412  0.74068174  0.43667530    -0.12200
C1323       C  0.07231216  0.76302973  0.58382325    -0.10600
C1324       C  0.09410996  0.75978979  0.56068702    -0.12200
C1325       C  0.92915462  0.77508515  0.58434589    -0.10600
C1326       C  0.90690442  0.77427321  0.56115087    -0.12200
C1327       C  0.92906668  0.75616140  0.41383890    -0.10600
C1328       C  0.90804055  0.75490789  0.43824980    -0.12200
C1329       C  0.67578554  0.80912417  0.34713130    -0.10600
C1330       C  0.69109924  0.82738964  0.36146894    -0.12200
C1331       C  0.69571235  0.69445419  0.62914306    -0.10600
C1332       C  0.67909813  0.71342203  0.63958411    -0.12200
C1333       C  0.31223279  0.67944237  0.62418715    -0.10600
C1334       C  0.32698319  0.69897539  0.63554981    -0.12200
C1335       C  0.31654063  0.79437090  0.34422149    -0.10600
C1336       C  0.30014717  0.81232359  0.35826413    -0.12200
C1337       C  0.42598602  0.77235058  0.57096864    -0.10600
C1338       C  0.40414240  0.76900245  0.59388827    -0.12200
C1339       C  0.42798424  0.75373893  0.40835181    -0.10600
C1340       C  0.40724321  0.75003366  0.38385957    -0.12200
C1341       C  0.56988588  0.77793738  0.57196972    -0.10600
C1342       C  0.59215218  0.77640605  0.59512931    -0.12200
C1343       C  0.59166251  0.75816504  0.38524206    -0.10600
C1344       C  0.57047464  0.75987648  0.40945060    -0.12200
C1345       C  0.69594410  0.57722220  0.63449189    -0.10600
C1346       C  0.67944594  0.55900819  0.64663186    -0.12200
C1347       C  0.67712615  0.96325325  0.35388568    -0.10600
C1348       C  0.69215574  0.94402389  0.36657879    -0.12200
C1349       C  0.29931973  0.92795969  0.36096106    -0.10600
C1350       C  0.31674393  0.94563024  0.34885435    -0.12200
C1351       C  0.31294449  0.56050189  0.62700930    -0.10600
C1352       C  0.32673339  0.54085931  0.64030361    -0.12200
C1353       C  0.40752259  0.50388568  0.39134740    -0.10600
C1354       C  0.42950789  0.50562781  0.41470034    -0.12200
C1355       C  0.40661068  0.98429919  0.60106415    -0.10600
C1356       C  0.42785860  0.98641836  0.57700003    -0.12200
C1357       C  0.57083026  0.49422318  0.58141072    -0.10600
C1358       C  0.59277612  0.99656739  0.60470278    -0.12200
C1359       C  0.59338446  0.51585292  0.39494189    -0.10600
C1360       C  0.57229221  0.51330447  0.41908132    -0.12200
O1361       O  0.53233937  0.51872821  0.87817876    -0.70300
O1362       O  0.46345992  0.52526296  0.79514300    -0.71300
O1363       O  0.46238829  0.51516363  0.87562755    -0.59900
O1364       O  0.53349370  0.52879921  0.79770026    -0.68300
O1365       O  0.53784730  0.98455852  0.78717182    -0.67900
O1366       O  0.46670751  0.97092237  0.86510757    -0.59100
O1367       O  0.46788017  0.98102298  0.78457462    -0.71600
O1368       O  0.53681027  0.97448221  0.86769597    -0.70400
Cu1369     Cu  0.49777808  0.52354118  0.83707521     1.04600
Cu1370     Cu  0.50245542  0.97618583  0.82572701     1.04300
C1371       C  0.54544919  0.49575496  0.88581736     0.95900
C1372       C  0.45480680  0.00402128  0.77697248     0.95000
C1373       C  0.45336644  0.99098918  0.88249710     0.87200
C1374       C  0.54683133  0.50873991  0.78029634     0.93400
C1375       C  0.33842719  0.96824020  0.67260703     0.89100
C1376       C  0.31962786  0.99425692  0.66221477    -0.51100
C1377       C  0.33975499  0.51545944  0.98768590     0.12000
C1378       C  0.37684993  0.50877462  0.99126214     0.23000
C1379       C  0.36187998  0.96301187  0.97186818    -0.51800
C1380       C  0.38199692  0.98439925  0.96437011     0.12200
C1381       C  0.36094945  0.97583464  0.70634899    -0.51400
C1382       C  0.38122402  0.49688640  0.69858139     0.12700
H1383       H  0.29285749  0.49563847  0.99360557     0.17200
H1384       H  0.39333054  0.52603968  0.98497454     0.03000
H1385       H  0.36267759  0.94425480  0.95554011     0.17500
H1386       H  0.36186238  0.96474763  0.73338033     0.17300
C1387       C  0.65957019  0.53537831  0.98949552     0.89100
C1388       C  0.63729907  0.52683843  0.95600114    -0.51100
C1389       C  0.61873975  0.00475214  0.96384035     0.12000
C1390       C  0.62444642  0.99291019  0.67102413     0.23000
C1391       C  0.63619054  0.53928964  0.69061380    -0.51800
C1392       C  0.61779806  0.51691044  0.69819883     0.12200
C1393       C  0.68039625  0.51030243  0.99930552    -0.51400
C1394       C  0.66200446  0.98808251  0.67396096     0.12700
H1395       H  0.63525731  0.53800515  0.92910645     0.17200
H1396       H  0.60935940  0.97482024  0.67739303     0.03000
H1397       H  0.63412298  0.55794549  0.70704928     0.17500
H1398       H  0.70720965  0.51027201  0.00079423     0.17300
O1399       O  0.46480400  0.74779820  0.86882348    -0.70300
O1400       O  0.53550920  0.74101830  0.78886938    -0.71300
O1401       O  0.53468925  0.75056085  0.86933490    -0.59900
O1402       O  0.46552206  0.73807765  0.78838176    -0.68300
O1403       O  0.46205536  0.78236379  0.77809283    -0.67900
O1404       O  0.53174040  0.79492751  0.85957119    -0.59100
O1405       O  0.53231903  0.78533819  0.77866490    -0.71600
O1406       O  0.46131702  0.79214871  0.85898296    -0.70400
Cu1407     Cu  0.50023752  0.74284291  0.82925743     1.04600
Cu1408     Cu  0.49673717  0.79029098  0.81845074     1.04300
C1409       C  0.45188526  0.77085282  0.87631237     0.95900
C1410       C  0.54504052  0.76217517  0.77130028     0.95000
C1411       C  0.54423144  0.77449151  0.87701204     0.87200
C1412       C  0.45289187  0.75826200  0.77059054     0.93400
C1413       C  0.34349959  0.72439679  0.97850189     0.89100
C1414       C  0.36395347  0.73503591  0.94493722    -0.51100
C1415       C  0.37937233  0.75874400  0.95283128     0.12000
C1416       C  0.37259114  0.76993554  0.66012539     0.23000
C1417       C  0.36772374  0.72269448  0.67939307    -0.51800
C1418       C  0.38291498  0.74669320  0.68707410     0.12200
C1419       C  0.31944355  0.74738141  0.98870789    -0.51400
C1420       C  0.33469624  0.77117744  0.66339634     0.12700
H1421       H  0.36732839  0.72408479  0.91800925     0.17200
H1422       H  0.38509344  0.78934413  0.66654147     0.03000
H1423       H  0.37257336  0.70432977  0.69569410     0.17500
H1424       H  0.29286833  0.74487182  0.99054751     0.17300
C1425       C  0.65899066  0.73752089  0.98139892     0.89100
C1426       C  0.67951569  0.76232677  0.99155574    -0.51100
C1427       C  0.66091714  0.78482128  0.66566902     0.12000
C1428       C  0.62339670  0.78055266  0.66178294     0.23000
C1429       C  0.63505346  0.73413612  0.68192843    -0.51800
C1430       C  0.61642886  0.75679000  0.68893343     0.12200
C1431       C  0.63725301  0.74617782  0.94730956    -0.51400
C1432       C  0.61837808  0.76856762  0.95454148     0.12700
H1433       H  0.70627887  0.76189707  0.99404446     0.17200
H1434       H  0.60811841  0.79887627  0.66776109     0.03000
H1435       H  0.63282810  0.71562021  0.69848504     0.17500
H1436       H  0.63557980  0.73474958  0.92058273     0.17300
O1437       O  0.03771686  0.77417419  0.71045965    -0.70300
O1438       O  0.96803308  0.79015960  0.96351709    -0.71300
O1439       O  0.96767666  0.78023185  0.71095256    -0.60700
O1440       O  0.03816350  0.78412364  0.96315583    -0.68300
O1441       O  0.03288559  0.73999925  0.95280445    -0.67900
O1442       O  0.96277233  0.73611222  0.70031637    -0.59100
O1443       O  0.96321495  0.74599648  0.95326462    -0.71600
O1444       O  0.03258435  0.73008607  0.69978355    -0.70400
Cu1445     Cu  0.00308265  0.78375037  0.00411402     1.04600
Cu1446     Cu  0.99767877  0.73652528  0.99280487     1.04300
C1447       C  0.04613025  0.74970197  0.71753593     0.95900
C1448       C  0.95465625  0.77037029  0.94591780     0.95000
C1449       C  0.95422102  0.75758430  0.71827813     0.87200
C1450       C  0.04661322  0.76250419  0.94544570     0.93400
C1451       C  0.16000023  0.71993775  0.84118841     0.89100
C1452       C  0.13834005  0.72869874  0.87514875    -0.51100
C1453       C  0.11944058  0.75103091  0.86770541     0.12000
C1454       C  0.12412253  0.76280880  0.82715923     0.23000
C1455       C  0.13587555  0.71634455  0.80718312    -0.51800
C1456       C  0.11711499  0.73897211  0.80004214     0.12200
C1457       C  0.18032586  0.74483911  0.83098838    -0.51400
C1458       C  0.16149529  0.76722281  0.82344146     0.12700
H1459       H  0.13703012  0.71757865  0.90209982     0.17200
H1460       H  0.10875340  0.78108814  0.82112627     0.03000
H1461       H  0.13374586  0.69779672  0.79057809     0.17500
H1462       H  0.20709041  0.74459451  0.82878567     0.17300
C1463       C  0.84124606  0.73488782  0.84237191     0.89100
C1464       C  0.81990065  0.75943279  0.83152492    -0.51100
C1465       C  0.83777122  0.78194536  0.82365977     0.12000
C1466       C  0.87543966  0.77793374  0.82785658     0.23000
C1467       C  0.86545496  0.73118007  0.80875226    -0.51800
C1468       C  0.88332238  0.75384317  0.80128995     0.12200
C1469       C  0.86250968  0.74412603  0.87634744    -0.51400
C1470       C  0.88067744  0.76648332  0.86873117     0.12700
H1471       H  0.79315462  0.75884150  0.82905270     0.17200
H1472       H  0.89012948  0.79625329  0.82156019     0.03000
H1473       H  0.86837397  0.71245139  0.79264937     0.17500
H1474       H  0.86456923  0.73298628  0.90326672     0.17300
O1475       O  0.03397003  0.96334735  0.96898414    -0.70300
O1476       O  0.96307388  0.97575841  0.71505397    -0.71300
O1477       O  0.96351799  0.96582976  0.96760940    -0.59900
O1478       O  0.03334798  0.97316705  0.71645466    -0.68300
O1479       O  0.03516196  0.51748620  0.70620241    -0.67900
O1480       O  0.96565414  0.51017083  0.95766172    -0.59100
O1481       O  0.96514264  0.52005910  0.70471289    -0.71600
O1482       O  0.03562135  0.50771341  0.95910651    -0.70400
Cu1483     Cu  0.99839826  0.96790696  0.00908158     1.04600
Cu1484     Cu  0.00045469  0.51535754  0.99817629     1.04300
C1485       C  0.04598210  0.98380288  0.95178483     0.95900
C1486       C  0.95303082  0.99981419  0.72221840     0.95000
C1487       C  0.95357129  0.98704325  0.94994336     0.87200
C1488       C  0.04519897  0.99640810  0.72408728     0.93400
C1489       C  0.16050684  0.51881749  0.84723314     0.89100
C1490       C  0.18021170  0.49338618  0.83634853    -0.51100
C1491       C  0.16089265  0.97154796  0.82909009     0.12000
C1492       C  0.12363023  0.97702178  0.83386469     0.23000
C1493       C  0.13584510  0.52314556  0.81395175    -0.51800
C1494       C  0.11657245  0.50112616  0.80711825     0.12200
C1495       C  0.13937455  0.51067263  0.88171884    -0.51400
C1496       C  0.11987427  0.98892600  0.87464627     0.12700
H1497       H  0.20690749  0.99293967  0.83324392     0.17200
H1498       H  0.10781443  0.95922597  0.82804716     0.03000
H1499       H  0.13375236  0.54177078  0.79751823     0.17500
H1500       H  0.13856211  0.52198933  0.90860078     0.17300
C1501       C  0.84117967  0.53000654  0.84638690     0.89100
C1502       C  0.86266988  0.52031975  0.88010128    -0.51100
C1503       C  0.88032424  0.99739890  0.87229084     0.12000
C1504       C  0.87454714  0.98596363  0.83158704     0.23000
C1505       C  0.86509732  0.53288215  0.81235110    -0.51800
C1506       C  0.88251164  0.50966127  0.80477823     0.12200
C1507       C  0.81936519  0.50595867  0.83592754    -0.51400
C1508       C  0.83687821  0.98294336  0.82793743     0.12700
H1509       H  0.86500019  0.53136422  0.90708775     0.17200
H1510       H  0.88888291  0.96720401  0.82519452     0.03000
H1511       H  0.86810931  0.55142646  0.79605140     0.17500
H1512       H  0.79261688  0.50724355  0.83373818     0.17300
O1513       O  0.74061817  0.66415709  0.96444522    -0.70300
O1514       O  0.79583492  0.60520412  0.91639534    -0.71300
O1515       O  0.79563020  0.66264598  0.91419826    -0.59900
O1516       O  0.74081798  0.60675035  0.96690348    -0.68300
O1517       O  0.70718629  0.60592278  0.91609742    -0.67900
O1518       O  0.76196814  0.66187686  0.86341408    -0.59100
O1519       O  0.76212805  0.60443990  0.86566293    -0.71600
O1520       O  0.70701000  0.66319117  0.91362261    -0.70400
Cu1521     Cu  0.76945858  0.63470810  0.94226691     1.04600
Cu1522     Cu  0.73338949  0.63381574  0.88792447     1.04300
C1523       C  0.71518727  0.67292827  0.94634195     0.95900
C1524       C  0.78754080  0.59554308  0.88363102     0.95000
C1525       C  0.78727077  0.67115185  0.88079925     0.87200
C1526       C  0.71538278  0.59760208  0.94965083     0.93400
O1527       O  0.73664327  0.85627813  0.69555405    -0.70300
O1528       O  0.79349726  0.91205966  0.74694035    -0.71300
O1529       O  0.79338703  0.85471834  0.74470227    -0.59900
O1530       O  0.73696628  0.91363142  0.69789973    -0.68300
O1531       O  0.70430646  0.91304123  0.74923471    -0.67900
O1532       O  0.76072365  0.85417081  0.79602621    -0.59100
O1533       O  0.76078864  0.91146300  0.79823796    -0.71600
O1534       O  0.70399913  0.85570743  0.74689986    -0.70400
Cu1535     Cu  0.76626769  0.88416627  0.71944689     1.04600
Cu1536     Cu  0.73130442  0.88354856  0.77439331     1.04300
C1537       C  0.71131657  0.84740171  0.71309705     0.95900
C1538       C  0.78601139  0.92046143  0.78065174     0.95000
C1539       C  0.78604634  0.84541913  0.77786873     0.87200
C1540       C  0.71183829  0.92254737  0.71625909     0.93400
O1541       O  0.26886974  0.59157674  0.96197799    -0.70300
O1542       O  0.21149272  0.64865454  0.91271315    -0.71300
O1543       O  0.21185108  0.59134688  0.91438134    -0.59900
O1544       O  0.26842146  0.64903917  0.96061572    -0.68300
O1545       O  0.30019257  0.64830057  0.90850099    -0.67900
O1546       O  0.24349821  0.59021094  0.86216562    -0.59100
O1547       O  0.24307529  0.64772985  0.86045326    -0.71600
O1548       O  0.30070914  0.59063382  0.90993362    -0.70400
Cu1549     Cu  0.23908147  0.62019056  0.93923933     1.04600
Cu1550     Cu  0.27304639  0.61919742  0.88341908     1.04300
C1551       C  0.29359504  0.58201050  0.94354571     0.95900
C1552       C  0.21823600  0.65708793  0.87890586     0.95000
C1553       C  0.21877760  0.58170871  0.88120957     0.87200
C1554       C  0.29300173  0.65785350  0.94170345     0.93400
O1555       O  0.28882291  0.84110329  0.74363576    -0.70300
O1556       O  0.23388151  0.89793347  0.79662962    -0.71300
O1557       O  0.23441826  0.84064474  0.79515514    -0.59900
O1558       O  0.28825610  0.89831009  0.74497307    -0.68300
O1559       O  0.25373179  0.89905553  0.69498776    -0.67900
O1560       O  0.19972801  0.84128532  0.74532097    -0.59100
O1561       O  0.19921823  0.89871949  0.74678289    -0.71600
O1562       O  0.25428225  0.84169026  0.69366791    -0.70400
Cu1563     Cu  0.26253507  0.86948156  0.77185186     1.04600
Cu1564     Cu  0.22547671  0.87021352  0.71843522     1.04300
C1565       C  0.28029201  0.83261118  0.71032699     0.95900
C1566       C  0.20795922  0.90720067  0.78005199     0.95000
C1567       C  0.20865811  0.83193945  0.77807758     0.87200
C1568       C  0.27959956  0.90756664  0.71207537     0.93400
C1569       C  0.82106191  0.95909097  0.81309964    -0.10600
C1570       C  0.80585277  0.94076785  0.79879759    -0.12200
C1571       C  0.82239489  0.55464710  0.85582798    -0.10600
C1572       C  0.80669544  0.57388434  0.86721485    -0.12200
C1573       C  0.17467284  0.94682054  0.81368729    -0.10600
C1574       C  0.18882875  0.92795627  0.79880957    -0.12200
C1575       C  0.18135767  0.54221137  0.85552279    -0.10600
C1576       C  0.19861020  0.56065029  0.86562731    -0.12200
C1577       C  0.07032300  0.99885580  0.75314193    -0.10600
C1578       C  0.09150000  0.00043313  0.77754705    -0.12200
C1579       C  0.09406872  0.98165273  0.90105450    -0.10600
C1580       C  0.07189626  0.98033786  0.92405179    -0.12200
C1581       C  0.90595232  0.98817527  0.89817095    -0.10600
C1582       C  0.92794678  0.98535237  0.92138223    -0.12200
C1583       C  0.92777432  0.00420130  0.75049705    -0.10600
C1584       C  0.90685317  0.50741170  0.77474387    -0.12200
C1585       C  0.82206549  0.71079993  0.85156954    -0.10600
C1586       C  0.80621629  0.69203369  0.86315985    -0.12200
C1587       C  0.82209274  0.80613109  0.80878618    -0.10600
C1588       C  0.80639662  0.82461472  0.79492280    -0.12200
C1589       C  0.17581927  0.79181633  0.80933815    -0.10600
C1590       C  0.18991202  0.81084604  0.79562718    -0.12200
C1591       C  0.19774582  0.67774031  0.86180708    -0.10600
C1592       C  0.18047091  0.69607829  0.85031270    -0.12200
C1593       C  0.07130049  0.74420656  0.74585531    -0.10600
C1594       C  0.09241949  0.74070897  0.77003016    -0.12200
C1595       C  0.07232633  0.76305550  0.91718942    -0.10600
C1596       C  0.09411964  0.75981822  0.89404642    -0.12200
C1597       C  0.92917642  0.77510690  0.91772010    -0.10600
C1598       C  0.90692715  0.77429797  0.89452436    -0.12200
C1599       C  0.92907393  0.75618972  0.74719484    -0.10600
C1600       C  0.90805713  0.75493803  0.77161582    -0.12200
C1601       C  0.67579329  0.80910803  0.68046743    -0.10600
C1602       C  0.69110762  0.82737317  0.69480532    -0.12200
C1603       C  0.69570049  0.69447202  0.96242854    -0.10600
C1604       C  0.67908486  0.71343697  0.97287999    -0.12200
C1605       C  0.31219864  0.67945190  0.95754003    -0.10600
C1606       C  0.32695884  0.69898098  0.96889856    -0.12200
C1607       C  0.31657248  0.79437055  0.67755623    -0.10600
C1608       C  0.30018083  0.81232403  0.69159889    -0.12200
C1609       C  0.42598020  0.77234324  0.90430060    -0.10600
C1610       C  0.40413846  0.76899180  0.92722157    -0.12200
C1611       C  0.42799536  0.75371710  0.74168783    -0.10600
C1612       C  0.40725777  0.75001281  0.71719233    -0.12200
C1613       C  0.56987275  0.77796393  0.90531244    -0.10600
C1614       C  0.59213802  0.77643434  0.92847296    -0.12200
C1615       C  0.59166727  0.75816119  0.71858663    -0.10600
C1616       C  0.57047847  0.75987772  0.74279344    -0.12200
C1617       C  0.69592151  0.57724059  0.96777676    -0.10600
C1618       C  0.67942413  0.55902608  0.97991801    -0.12200
C1619       C  0.67711653  0.96323784  0.68723609    -0.10600
C1620       C  0.69214487  0.94400572  0.69992196    -0.12200
C1621       C  0.29933348  0.92796780  0.69430163    -0.10600
C1622       C  0.31674944  0.94564510  0.68219937    -0.12200
C1623       C  0.31292271  0.56052436  0.96040300    -0.10600
C1624       C  0.32671865  0.54088344  0.97369283    -0.12200
C1625       C  0.40749600  0.50393607  0.72468644    -0.10600
C1626       C  0.42948260  0.50568301  0.74803625    -0.12200
C1627       C  0.40657943  0.98433362  0.93437958    -0.10600
C1628       C  0.42782876  0.98645735  0.91031792    -0.12200
C1629       C  0.57081267  0.49422916  0.91472751    -0.10600
C1630       C  0.59276330  0.99657029  0.93801383    -0.12200
C1631       C  0.59338366  0.51586474  0.72828841    -0.10600
C1632       C  0.57228252  0.51332481  0.75241881    -0.12200
loop_ 
_geom_bond_atom_site_label_1 
_geom_bond_atom_site_label_2 
_geom_bond_distance 
_geom_bond_site_symmetry_2 
_ccdc_geom_bond_type 
O1           Cu9   2.006       .  S
O1           C11   1.277   1_545  A
O2           Cu9   2.009       .  S
O2          C828   1.276       .  A
O3           Cu9   2.011       .  S
O3          C829   1.277   1_545  A
O4           Cu9   2.012       .  S
O4           C14   1.276       .  A
O5          Cu10   2.011       .  S
O5          C830   1.277       .  A
O6          Cu10   2.014       .  S
O6           C13   1.277       .  A
O7          Cu10   2.008       .  S
O7           C12   1.277       .  A
O8          Cu10   2.011       .  S
O8          C827   1.276       .  A
Cu9        Cu826   2.380   1_545  S
Cu10       Cu825   2.380       .  S
C11         O824   1.276       .  A
C11         C269   1.434       .  S
C12         O818   1.276       .  A
C12        C1082   1.434       .  S
C13         O819   1.277       .  A
C13         C268   1.437       .  S
C14         O821   1.277   1_545  A
C14         C272   1.436       .  S
C15          C16   1.531   1_554  S
C15          C21   1.530       .  S
C15         C563   1.539   1_554  S
C15         C262   1.468       .  S
C16        H1383   1.087       .  S
C16        C1377   1.363       .  D
C17          C18   1.539       .  S
C17        C1104   1.363   1_545  D
C17         C264   1.443       .  S
C18         C294   1.537   1_545  S
C18         C836   1.536   1_545  S
C18          H24   1.112       .  S
C19         C287   1.539       .  S
C19          H25   1.086       .  S
C19          C20   1.368       .  D
C20         C834   1.536       .  S
C20         C267   1.443       .  S
C21          H26   1.087       .  S
C21         C838   1.361       .  D
C22         C562   1.537   1_564  S
C22         C837   1.361       .  D
C22         C265   1.440   1_565  S
H23        C1104   1.087       .  S
C27          C28   1.529       .  S
C27          C33   1.530       .  S
C27         C303   1.538       .  S
C27         C258   1.466       .  S
C28          H35   1.087       .  S
C28         C845   1.361       .  D
C29         C302   1.538       .  S
C29         C844   1.361       .  D
C29         C270   1.440       .  S
C30          C34   1.540       .  S
C30         C573   1.538   1_554  S
C30         C848   1.537       .  S
C30          H36   1.112       .  S
C31         C571   1.538   1_554  S
C31          H37   1.086       .  S
C31          C32   1.367       .  D
C32         C846   1.537   1_545  S
C32         C271   1.442       .  S
C33          H38   1.087       .  S
C33        C1122   1.363   1_545  D
C34        C1393   1.363   1_554  D
C34         C259   1.442       .  S
O39         Cu47   2.002       .  S
O39          C49   1.276       .  A
O40         Cu47   2.006       .  S
O40          C50   1.276       .  A
O41         Cu47   2.005       .  S
O41          C51   1.276       .  A
O42         Cu47   2.008       .  S
O42          C52   1.276       .  A
O43         Cu48   2.020       .  S
O43          C52   1.278       .  A
O44         Cu48   2.021       .  S
O44          C51   1.277       .  A
O45         Cu48   2.012       .  S
O45          C50   1.277       .  A
O46         Cu48   2.014       .  S
O46          C49   1.276       .  A
Cu47        Cu48   2.379       .  S
C49         C249   1.433       .  S
C50         C256   1.434       .  S
C51         C253   1.437       .  S
C52         C251   1.438       .  S
C53          C54   1.529       .  S
C53          C59   1.531       .  S
C53         C329   1.539       .  S
C53         C246   1.468       .  S
C54          H61   1.087       .  S
C54          C55   1.361       .  D
C55         C328   1.538       .  S
C55         C250   1.439       .  S
C56          C60   1.540       .  S
C56          C58   1.536   1_556  S
C56         C599   1.538       .  S
C56          H62   1.112       .  S
C57         C597   1.539   1_554  S
C57          H63   1.086       .  S
C57          C58   1.368       .  D
C58         C252   1.444       .  S
C59          H64   1.087       .  S
C59         C332   1.363       .  D
C60         C603   1.363       .  D
C60         C247   1.442   1_556  S
C65          C66   1.529       .  S
C65          C71   1.530       .  S
C65         C341   1.536       .  S
C65         C244   1.466       .  S
C66          H73   1.087       .  S
C66         C339   1.362       .  D
C67          C68   1.542       .  S
C67         C610   1.362       .  D
C67         C241   1.442   1_556  S
C68          C70   1.536   1_556  S
C68         C616   1.540       .  S
C68          H74   1.112   1_556  S
C69         C609   1.536   1_554  S
C69          H75   1.086       .  S
C69          C70   1.366       .  D
C70         C255   1.440       .  S
C71          H76   1.087       .  S
C71          C72   1.362       .  D
C72         C340   1.540       .  S
C72         C254   1.443       .  S
O77        Cu629   2.016       .  S
O77          C87   1.278       .  A
O78         Cu85   2.018   1_655  S
O78          C88   1.277       .  A
O79        Cu629   2.013   1_655  S
O79          C89   1.277       .  A
O80         Cu85   2.013       .  S
O80          C90   1.276       .  A
O81         Cu86   2.002   1_455  S
O81          C90   1.276       .  A
O82        Cu630   2.006   1_554  S
O82          C89   1.276       .  A
O83         Cu86   2.005       .  S
O83          C88   1.276       .  A
O84        Cu630   2.009   1_454  S
O84          C87   1.276       .  A
Cu85        O349   2.016       .  S
Cu85        O351   2.013   1_455  S
Cu85        Cu86   2.380   1_455  S
Cu86        O354   2.006       .  S
Cu86        O356   2.009   1_655  S
C87         C233   1.437       .  S
C88         C237   1.437       .  S
C89         C239   1.434       .  S
C90         C235   1.433       .  S
C91          C92   1.531       .  S
C91          C97   1.531       .  S
C91          C95   1.540       .  S
C91         C232   1.469       .  S
C92          H99   1.087       .  S
C92          C93   1.362       .  D
C93          C94   1.536       .  S
C93         C236   1.439       .  S
C94          C98   1.537       .  S
C94          C96   1.535       .  S
C94         H100   1.112       .  S
C95         H101   1.086       .  S
C95          C96   1.368       .  D
C96         C234   1.443       .  S
C97         H102   1.087       .  S
C97          C98   1.363       .  D
C98         C229   1.440       .  S
C103        C104   1.529       .  S
C103        C109   1.529       .  S
C103        C107   1.536       .  S
C103        C225   1.465       .  S
C104        H111   1.087       .  S
C104        C105   1.363       .  D
C105        C106   1.543       .  S
C105        C227   1.443       .  S
C106        C110   1.540       .  S
C106        C108   1.537       .  S
C106        H112   1.112       .  S
C107        H113   1.086       .  S
C107        C108   1.366       .  D
C108        C240   1.441       .  S
C109        H114   1.087       .  S
C109        C110   1.361       .  D
C110        C238   1.442       .  S
O115       Cu123   2.017   1_455  S
O115        C125   1.277       .  A
O116       Cu667   2.015       .  S
O116        C126   1.278       .  A
O117       Cu123   2.015       .  S
O117        C127   1.276       .  A
O118       Cu667   2.013   1_455  S
O118        C128   1.277       .  A
O119       Cu668   2.007   1_554  S
O119        C944   1.276   1_545  A
O120       Cu124   2.004   1_655  S
O120        C943   1.276   1_545  A
O121       Cu668   2.005   1_654  S
O121        C942   1.275   1_545  A
O122       Cu124   2.002       .  S
O122        C941   1.276   1_545  A
Cu123       O388   2.015       .  S
Cu123       O390   2.013   1_655  S
Cu123      Cu940   2.380   1_655  S
Cu124       O391   2.007       .  S
Cu124       O393   2.005   1_455  S
Cu124      Cu939   2.380   1_445  S
C125        O938   1.276       .  A
C125        C220   1.435       .  S
C126        O937   1.275       .  A
C126        C223   1.435       .  S
C127        O936   1.276       .  A
C127        C222   1.435       .  S
C128        O935   1.276       .  A
C128        C217   1.435       .  S
C129        C130   1.530   1_545  S
C129        C135   1.530       .  S
C129        C133   1.537       .  S
C129        C215   1.467       .  S
C130        H953   1.087       .  S
C130        C947   1.363       .  D
C131        C132   1.540       .  S
C131        C946   1.363       .  D
C131        C213   1.441       .  S
C132        C136   1.539       .  S
C132        C950   1.535       .  S
C132        H138   1.112       .  S
C133        H139   1.086       .  S
C133        C134   1.366       .  D
C134        C948   1.535   1_545  S
C134       C1034   1.441       .  S
C135        H140   1.087       .  S
C135        C952   1.362   1_545  D
C136        C951   1.362       .  D
C136        C219   1.441       .  S
H137        C946   1.087       .  S
C141        C142   1.529       .  S
C141        C147   1.531       .  S
C141        C145   1.538       .  S
C141        C211   1.467       .  S
C142        H149   1.087       .  S
C142        C959   1.361   1_545  D
C143        C144   1.538       .  S
C143        C958   1.361       .  D
C143        C221   1.440       .  S
C144        C148   1.539       .  S
C144        C962   1.535       .  S
C144        H150   1.112       .  S
C145        H151   1.086       .  S
C145        C146   1.367       .  D
C146        C960   1.535   1_545  S
C146        C224   1.440       .  S
C147        H152   1.087       .  S
C147        C964   1.363   1_545  D
C148        C963   1.363       .  D
C148        C209   1.441       .  S
O153       Cu161   2.011       .  S
O153        C163   1.276       .  A
O154       Cu161   2.011       .  S
O154        C164   1.277       .  A
O155       Cu161   2.006       .  S
O155        C165   1.276       .  A
O156       Cu161   2.008       .  S
O156        C166   1.276       .  A
O157       Cu162   2.007       .  S
O157        C166   1.276       .  A
O158       Cu162   2.008       .  S
O158        C165   1.276       .  A
O159       Cu162   2.007       .  S
O159        C164   1.276       .  A
O160       Cu162   2.004       .  S
O160        C163   1.276       .  A
Cu161      Cu162   2.381       .  S
C163        C243   1.433       .  S
C164        C212   1.434       .  S
C165        C226   1.432       .  S
C166        C257   1.433       .  S
O167       Cu175   2.013       .  S
O167        C177   1.277       .  A
O168       Cu175   2.012       .  S
O168        C178   1.277       .  A
O169       Cu175   2.014       .  S
O169        C179   1.277       .  A
O170       Cu175   2.012       .  S
O170        C180   1.277       .  A
O171       Cu176   2.012       .  S
O171        C180   1.277       .  A
O172       Cu176   2.013       .  S
O172        C179   1.277       .  A
O173       Cu176   2.010       .  S
O173        C178   1.276       .  A
O174       Cu176   2.012       .  S
O174        C177   1.277       .  A
Cu175      Cu176   2.379       .  S
C177        C242   1.437       .  S
C178        C210   1.436       .  S
C179        C228   1.438       .  S
C180        C260   1.437       .  S
O181       Cu189   2.010       .  S
O181        C191   1.276       .  A
O182       Cu189   2.010       .  S
O182        C192   1.277       .  A
O183       Cu189   2.004       .  S
O183        C193   1.276       .  A
O184       Cu189   2.006       .  S
O184        C194   1.275       .  A
O185       Cu190   2.015       .  S
O185        C194   1.278       .  A
O186       Cu190   2.014       .  S
O186        C193   1.277       .  A
O187       Cu190   2.015       .  S
O187        C192   1.277       .  A
O188       Cu190   2.015       .  S
O188        C191   1.277       .  A
Cu189      Cu190   2.379       .  S
C191        C263   1.437       .  S
C192        C231   1.437       .  S
C193        C216   1.434       .  S
C194        C245   1.435       .  S
O195       Cu203   2.008       .  S
O195        C205   1.276       .  A
O196       Cu203   2.008       .  S
O196        C206   1.276       .  A
O197       Cu203   2.007       .  S
O197        C207   1.276       .  A
O198       Cu203   2.008       .  S
O198        C208   1.276       .  A
O199       Cu204   2.013       .  S
O199        C208   1.276       .  A
O200       Cu204   2.012       .  S
O200        C207   1.277       .  A
O201       Cu204   2.014       .  S
O201        C206   1.277       .  A
O202       Cu204   2.014       .  S
O202        C205   1.277       .  A
Cu203      Cu204   2.380       .  S
C205        C248   1.436       .  S
C206        C214   1.436       .  S
C207        C230   1.434       .  S
C208        C261   1.435       .  S
C209        C210   1.206       .  T
C211        C212   1.206       .  T
C213        C214   1.206       .  T
C215        C216   1.205       .  T
C217        C218   1.206       .  T
C218        C950   1.441       .  S
C219        C220   1.206       .  T
C221        C222   1.205       .  T
C223       C1040   1.205       .  T
C224       C1039   1.205       .  T
C225        C226   1.204       .  T
C227        C228   1.207       .  T
C229        C230   1.205       .  T
C231        C232   1.207       .  T
C233        C234   1.207       .  T
C235        C236   1.205       .  T
C237        C238   1.206       .  T
C239        C240   1.205       .  T
C241        C242   1.207       .  T
C243        C244   1.205       .  T
C245        C246   1.206       .  T
C247        C248   1.206       .  T
C249        C250   1.205       .  T
C251        C252   1.207       .  T
C253        C254   1.207       .  T
C255        C256   1.205       .  T
C257        C258   1.205       .  T
C259        C260   1.206       .  T
C261        C262   1.206       .  T
C263        C264   1.207       .  T
C265        C266   1.205       .  T
C266        C828   1.434       .  S
C267        C268   1.207       .  T
C269       C1086   1.205       .  T
C270       C1085   1.205       .  T
C271        C272   1.206       .  T
O273       Cu281   2.007       .  S
O273        C283   1.277   1_545  A
O274       Cu281   2.009       .  S
O274       C1100   1.276       .  A
O275       Cu281   2.011       .  S
O275       C1101   1.277   1_545  A
O276       Cu281   2.012       .  S
O276        C286   1.276       .  A
O277       Cu282   2.011       .  S
O277       C1102   1.277       .  A
O278       Cu282   2.013       .  S
O278        C285   1.277       .  A
O279       Cu282   2.008       .  S
O279        C284   1.277       .  A
O280       Cu282   2.011       .  S
O280       C1099   1.276       .  A
Cu281     Cu1098   2.380   1_545  S
Cu282     Cu1097   2.380       .  S
C283       O1096   1.276       .  A
C283        C541   1.434       .  S
C284       O1090   1.276       .  A
C284       C1354   1.434       .  S
C285       O1091   1.277       .  A
C285        C540   1.437       .  S
C286       O1093   1.277   1_545  A
C286        C544   1.436       .  S
C287        C288   1.531       .  S
C287        C293   1.530       .  S
C287        C534   1.468       .  S
C288        H839   1.087       .  S
C288        C833   1.363       .  D
C289        C290   1.539       .  S
C289       C1376   1.363   1_545  D
C289        C536   1.443       .  S
C290        C566   1.537   1_545  S
C290       C1108   1.536   1_545  S
C290        H296   1.112       .  S
C291        C559   1.539       .  S
C291        H297   1.086       .  S
C291        C292   1.368       .  D
C292       C1106   1.536       .  S
C292        C539   1.443       .  S
C293        H298   1.087       .  S
C293       C1110   1.361       .  D
C294       C1109   1.361       .  D
C294        C537   1.440   1_565  S
H295       C1376   1.087       .  S
C299        C300   1.529       .  S
C299        C305   1.530       .  S
C299        C575   1.538       .  S
C299        C530   1.465       .  S
C300        H307   1.087       .  S
C300       C1117   1.361       .  D
C301        C574   1.538       .  S
C301       C1116   1.361       .  D
C301        C542   1.440       .  S
C302        C306   1.540       .  S
C302       C1120   1.537       .  S
C302        H308   1.112       .  S
C303        H309   1.086       .  S
C303        C304   1.367       .  D
C304       C1118   1.537   1_545  S
C304        C543   1.442       .  S
C305        H310   1.087       .  S
C305       C1394   1.363   1_545  D
C306        C849   1.363       .  D
C306        C531   1.442       .  S
O311       Cu319   2.002       .  S
O311        C321   1.276       .  A
O312       Cu319   2.006       .  S
O312        C322   1.276       .  A
O313       Cu319   2.005       .  S
O313        C323   1.276       .  A
O314       Cu319   2.008       .  S
O314        C324   1.276       .  A
O315       Cu320   2.020       .  S
O315        C324   1.278       .  A
O316       Cu320   2.021       .  S
O316        C323   1.277       .  A
O317       Cu320   2.012       .  S
O317        C322   1.277       .  A
O318       Cu320   2.014       .  S
O318        C321   1.276       .  A
Cu319      Cu320   2.379       .  S
C321        C521   1.433       .  S
C322        C528   1.434       .  S
C323        C525   1.437       .  S
C324        C523   1.438       .  S
C325        C326   1.529       .  S
C325        C331   1.531       .  S
C325        C601   1.539       .  S
C325        C518   1.468       .  S
C326        H333   1.087       .  S
C326        C327   1.361       .  D
C327        C600   1.538       .  S
C327        C522   1.439       .  S
C328        C332   1.540       .  S
C328        C330   1.536       .  S
C328        H334   1.112       .  S
C329        H335   1.086       .  S
C329        C330   1.368       .  D
C330        C524   1.444       .  S
C331        H336   1.087       .  S
C331        C604   1.363       .  D
C332        C519   1.442       .  S
C337        C338   1.529       .  S
C337        C343   1.530       .  S
C337        C613   1.536       .  S
C337        C516   1.466       .  S
C338        H345   1.087       .  S
C338        C611   1.362       .  D
C339        C340   1.542       .  S
C339        C513   1.442       .  S
C340        C342   1.536       .  S
C340        H346   1.112       .  S
C341        H347   1.086       .  S
C341        C342   1.366       .  D
C342        C527   1.440       .  S
C343        H348   1.087       .  S
C343        C344   1.362       .  D
C344        C612   1.540       .  S
C344        C526   1.443       .  S
O349        C359   1.278       .  A
O350       Cu357   2.018   1_655  S
O350        C360   1.277       .  A
O351        C361   1.277       .  A
O352       Cu357   2.013       .  S
O352        C362   1.276       .  A
O353       Cu358   2.002   1_455  S
O353        C362   1.276       .  A
O354        C361   1.276       .  A
O355       Cu358   2.005       .  S
O355        C360   1.276       .  A
O356        C359   1.276       .  A
Cu357       O621   2.016       .  S
Cu357       O623   2.013   1_455  S
Cu357      Cu358   2.380   1_455  S
Cu358       O626   2.006       .  S
Cu358       O628   2.009   1_655  S
C359        C505   1.437       .  S
C360        C509   1.437       .  S
C361        C511   1.434       .  S
C362        C507   1.433       .  S
C363        C364   1.531       .  S
C363        C369   1.531       .  S
C363        C367   1.540       .  S
C363        C504   1.469       .  S
C364        H371   1.087       .  S
C364        C365   1.361       .  D
C365        C366   1.536       .  S
C365        C508   1.439       .  S
C366        C370   1.537       .  S
C366        C368   1.535       .  S
C366        H372   1.112       .  S
C367        H373   1.086       .  S
C367        C368   1.368       .  D
C368        C506   1.443       .  S
C369        H374   1.087       .  S
C369        C370   1.363       .  D
C370        C501   1.440       .  S
C375        C376   1.529       .  S
C375        C381   1.529       .  S
C375        C379   1.536       .  S
C375        C497   1.465       .  S
C376        H383   1.087       .  S
C376        C377   1.363       .  D
C377        C378   1.543       .  S
C377        C499   1.443       .  S
C378        C382   1.540       .  S
C378        C380   1.537       .  S
C378        H384   1.112       .  S
C379        H385   1.086       .  S
C379        C380   1.366       .  D
C380        C512   1.441       .  S
C381        H386   1.087       .  S
C381        C382   1.361       .  D
C382        C510   1.442       .  S
O387       Cu395   2.017   1_455  S
O387        C397   1.277       .  A
O388        C398   1.277       .  A
O389       Cu395   2.015       .  S
O389        C399   1.276       .  A
O390        C400   1.277       .  A
O391       C1216   1.276   1_545  A
O392       Cu396   2.004   1_655  S
O392       C1215   1.276   1_545  A
O393       C1214   1.275   1_545  A
O394       Cu396   2.002       .  S
O394       C1213   1.276   1_545  A
Cu395       O660   2.015       .  S
Cu395       O662   2.013   1_655  S
Cu395     Cu1212   2.380   1_655  S
Cu396       O663   2.007       .  S
Cu396       O665   2.005   1_455  S
Cu396     Cu1211   2.380   1_445  S
C397       O1210   1.276       .  A
C397        C492   1.435       .  S
C398       O1209   1.275       .  A
C398        C495   1.435       .  S
C399       O1208   1.276       .  A
C399        C494   1.435       .  S
C400       O1207   1.276       .  A
C400        C489   1.435       .  S
C401        C402   1.530   1_545  S
C401        C407   1.530       .  S
C401        C405   1.537       .  S
C401        C487   1.467       .  S
C402       H1225   1.087       .  S
C402       C1219   1.363       .  D
C403        C404   1.540       .  S
C403       C1218   1.363       .  D
C403        C485   1.441       .  S
C404        C408   1.539       .  S
C404       C1222   1.535       .  S
C404        H410   1.112       .  S
C405        H411   1.086       .  S
C405        C406   1.366       .  D
C406       C1220   1.535   1_545  S
C406       C1306   1.441       .  S
C407        H412   1.087       .  S
C407       C1224   1.362   1_545  D
C408       C1223   1.362       .  D
C408        C491   1.441       .  S
H409       C1218   1.087       .  S
C413        C414   1.529       .  S
C413        C419   1.531       .  S
C413        C417   1.538       .  S
C413        C483   1.467       .  S
C414        H421   1.087       .  S
C414       C1231   1.361   1_545  D
C415        C416   1.538       .  S
C415       C1230   1.361       .  D
C415        C493   1.440       .  S
C416        C420   1.539       .  S
C416       C1234   1.535       .  S
C416        H422   1.112       .  S
C417        H423   1.086       .  S
C417        C418   1.367       .  D
C418       C1232   1.535   1_545  S
C418        C496   1.440       .  S
C419        H424   1.087       .  S
C419       C1236   1.363   1_545  D
C420       C1235   1.363       .  D
C420        C481   1.441       .  S
O425       Cu433   2.011       .  S
O425        C435   1.276       .  A
O426       Cu433   2.011       .  S
O426        C436   1.277       .  A
O427       Cu433   2.006       .  S
O427        C437   1.276       .  A
O428       Cu433   2.008       .  S
O428        C438   1.276       .  A
O429       Cu434   2.007       .  S
O429        C438   1.276       .  A
O430       Cu434   2.008       .  S
O430        C437   1.276       .  A
O431       Cu434   2.007       .  S
O431        C436   1.276       .  A
O432       Cu434   2.004       .  S
O432        C435   1.276       .  A
Cu433      Cu434   2.381       .  S
C435        C515   1.433       .  S
C436        C484   1.434       .  S
C437        C498   1.432       .  S
C438        C529   1.433       .  S
O439       Cu447   2.013       .  S
O439        C449   1.277       .  A
O440       Cu447   2.012       .  S
O440        C450   1.277       .  A
O441       Cu447   2.014       .  S
O441        C451   1.277       .  A
O442       Cu447   2.012       .  S
O442        C452   1.277       .  A
O443       Cu448   2.012       .  S
O443        C452   1.277       .  A
O444       Cu448   2.013       .  S
O444        C451   1.277       .  A
O445       Cu448   2.010       .  S
O445        C450   1.276       .  A
O446       Cu448   2.012       .  S
O446        C449   1.277       .  A
Cu447      Cu448   2.379       .  S
C449        C514   1.437       .  S
C450        C482   1.436       .  S
C451        C500   1.438       .  S
C452        C532   1.437       .  S
O453       Cu461   2.010       .  S
O453        C463   1.276       .  A
O454       Cu461   2.010       .  S
O454        C464   1.277       .  A
O455       Cu461   2.004       .  S
O455        C465   1.276       .  A
O456       Cu461   2.005       .  S
O456        C466   1.275       .  A
O457       Cu462   2.015       .  S
O457        C466   1.277       .  A
O458       Cu462   2.014       .  S
O458        C465   1.277       .  A
O459       Cu462   2.015       .  S
O459        C464   1.277       .  A
O460       Cu462   2.015       .  S
O460        C463   1.277       .  A
Cu461      Cu462   2.380       .  S
C463        C535   1.437       .  S
C464        C503   1.436       .  S
C465        C488   1.434       .  S
C466        C517   1.435       .  S
O467       Cu475   2.008       .  S
O467        C477   1.276       .  A
O468       Cu475   2.009       .  S
O468        C478   1.276       .  A
O469       Cu475   2.007       .  S
O469        C479   1.276       .  A
O470       Cu475   2.008       .  S
O470        C480   1.276       .  A
O471       Cu476   2.013       .  S
O471        C480   1.276       .  A
O472       Cu476   2.012       .  S
O472        C479   1.277       .  A
O473       Cu476   2.014       .  S
O473        C478   1.277       .  A
O474       Cu476   2.014       .  S
O474        C477   1.277       .  A
Cu475      Cu476   2.380       .  S
C477        C520   1.436       .  S
C478        C486   1.436       .  S
C479        C502   1.434       .  S
C480        C533   1.435       .  S
C481        C482   1.206       .  T
C483        C484   1.205       .  T
C485        C486   1.206       .  T
C487        C488   1.205       .  T
C489        C490   1.206       .  T
C490       C1222   1.441       .  S
C491        C492   1.206       .  T
C493        C494   1.205       .  T
C495       C1312   1.205       .  T
C496       C1311   1.205       .  T
C497        C498   1.204       .  T
C499        C500   1.207       .  T
C501        C502   1.205       .  T
C503        C504   1.207       .  T
C505        C506   1.207       .  T
C507        C508   1.205       .  T
C509        C510   1.206       .  T
C511        C512   1.205       .  T
C513        C514   1.207       .  T
C515        C516   1.205       .  T
C517        C518   1.206       .  T
C519        C520   1.206       .  T
C521        C522   1.205       .  T
C523        C524   1.207       .  T
C525        C526   1.207       .  T
C527        C528   1.205       .  T
C529        C530   1.205       .  T
C531        C532   1.206       .  T
C533        C534   1.206       .  T
C535        C536   1.207       .  T
C537        C538   1.205       .  T
C538       C1100   1.434       .  S
C539        C540   1.207       .  T
C541       C1358   1.205       .  T
C542       C1357   1.205       .  T
C543        C544   1.206       .  T
O545       Cu553   2.007       .  S
O545        C555   1.277   1_545  A
O546       Cu553   2.009       .  S
O546       C1372   1.276       .  A
O547       Cu553   2.011       .  S
O547       C1373   1.277   1_545  A
O548       Cu553   2.012       .  S
O548        C558   1.276       .  A
O549       Cu554   2.011       .  S
O549       C1374   1.277       .  A
O550       Cu554   2.013       .  S
O550        C557   1.277       .  A
O551       Cu554   2.008       .  S
O551        C556   1.277       .  A
O552       Cu554   2.011       .  S
O552       C1371   1.276       .  A
Cu553     Cu1370   2.380   1_545  S
Cu554     Cu1369   2.380       .  S
C555       O1368   1.276       .  A
C555        C813   1.434       .  S
C556       O1362   1.276       .  A
C556       C1626   1.434       .  S
C557       O1363   1.277       .  A
C557        C812   1.437       .  S
C558       O1365   1.277   1_545  A
C558        C816   1.436       .  S
C559        C560   1.531       .  S
C559        C565   1.530       .  S
C559        C806   1.468       .  S
C560       H1111   1.087       .  S
C560       C1105   1.363       .  D
C561        C562   1.539       .  S
C561        C832   1.363   1_545  D
C561        C808   1.443       .  S
C562       C1380   1.536   1_545  S
C562        H568   1.112       .  S
C563        H569   1.086       .  S
C563        C564   1.368       .  D
C564       C1378   1.536       .  S
C564        C811   1.443       .  S
C565        H570   1.087       .  S
C565       C1382   1.361       .  D
C566       C1381   1.361       .  D
C566        C809   1.440   1_565  S
H567        C832   1.087       .  S
C571        C572   1.529       .  S
C571        C577   1.530       .  S
C571        C802   1.466       .  S
C572        H579   1.087       .  S
C572       C1389   1.361       .  D
C573       C1388   1.361       .  D
C573        C814   1.440       .  S
C574        C578   1.540       .  S
C574       C1392   1.537       .  S
C574        H580   1.112       .  S
C575        H581   1.086       .  S
C575        C576   1.367       .  D
C576       C1390   1.537   1_545  S
C576        C815   1.442       .  S
C577        H582   1.087   1_556  S
C577        C850   1.363   1_546  D
C578       C1121   1.363       .  D
C578        C803   1.442       .  S
O583       Cu591   2.002       .  S
O583        C593   1.276       .  A
O584       Cu591   2.006       .  S
O584        C594   1.276       .  A
O585       Cu591   2.005       .  S
O585        C595   1.276       .  A
O586       Cu591   2.008       .  S
O586        C596   1.276       .  A
O587       Cu592   2.020       .  S
O587        C596   1.278       .  A
O588       Cu592   2.021       .  S
O588        C595   1.277       .  A
O589       Cu592   2.012       .  S
O589        C594   1.277       .  A
O590       Cu592   2.014       .  S
O590        C593   1.276       .  A
Cu591      Cu592   2.379       .  S
C593        C793   1.433       .  S
C594        C800   1.434       .  S
C595        C797   1.437       .  S
C596        C795   1.438       .  S
C597        C598   1.529       .  S
C597        C603   1.531       .  S
C597        C790   1.468       .  S
C598        H605   1.087       .  S
C598        C599   1.361       .  D
C599        C794   1.439       .  S
C600        C604   1.540       .  S
C600        C602   1.536       .  S
C600        H606   1.112       .  S
C601        H607   1.086       .  S
C601        C602   1.368       .  D
C602        C796   1.444       .  S
C603        H608   1.087       .  S
C604        C791   1.442       .  S
C609        C610   1.529       .  S
C609        C615   1.530       .  S
C609        C788   1.466       .  S
C610        H617   1.087       .  S
C611        C612   1.542       .  S
C611        C785   1.442       .  S
C612        C614   1.536       .  S
C612        H618   1.112       .  S
C613        H619   1.086       .  S
C613        C614   1.366       .  D
C614        C799   1.440       .  S
C615        H620   1.087       .  S
C615        C616   1.362       .  D
C616        C798   1.443       .  S
O621        C631   1.278       .  A
O622       Cu629   2.018   1_656  S
O622        C632   1.277       .  A
O623        C633   1.277       .  A
O624       Cu629   2.013   1_556  S
O624        C634   1.276       .  A
O625       Cu630   2.002   1_455  S
O625        C634   1.276       .  A
O626        C633   1.276       .  A
O627       Cu630   2.005       .  S
O627        C632   1.276       .  A
O628        C631   1.276       .  A
Cu629      Cu630   2.380   1_454  S
C631        C777   1.437       .  S
C632        C781   1.437       .  S
C633        C783   1.434       .  S
C634        C779   1.433       .  S
C635        C636   1.531       .  S
C635        C641   1.531       .  S
C635        C639   1.540       .  S
C635        C776   1.469       .  S
C636        H643   1.087       .  S
C636        C637   1.361       .  D
C637        C638   1.536       .  S
C637        C780   1.439       .  S
C638        C642   1.537       .  S
C638        C640   1.535       .  S
C638        H644   1.112       .  S
C639        H645   1.086       .  S
C639        C640   1.368       .  D
C640        C778   1.443       .  S
C641        H646   1.087       .  S
C641        C642   1.363       .  D
C642        C773   1.440       .  S
C647        C648   1.529       .  S
C647        C653   1.529       .  S
C647        C651   1.536       .  S
C647        C769   1.465       .  S
C648        H655   1.087       .  S
C648        C649   1.363       .  D
C649        C650   1.543       .  S
C649        C771   1.443       .  S
C650        C654   1.540       .  S
C650        C652   1.537       .  S
C650        H656   1.112       .  S
C651        H657   1.086       .  S
C651        C652   1.366       .  D
C652        C784   1.441       .  S
C653        H658   1.087       .  S
C653        C654   1.361       .  D
C654        C782   1.442       .  S
O659       Cu667   2.017   1_456  S
O659        C669   1.277       .  A
O660        C670   1.277       .  A
O661       Cu667   2.015   1_556  S
O661        C671   1.276       .  A
O662        C672   1.277       .  A
O663       C1488   1.276   1_545  A
O664       Cu668   2.004   1_655  S
O664       C1487   1.276   1_545  A
O665       C1486   1.275   1_545  A
O666       Cu668   2.002       .  S
O666       C1485   1.276   1_545  A
Cu667     Cu1484   2.380   1_654  S
Cu668     Cu1483   2.380   1_446  S
C669       O1482   1.276       .  A
C669        C764   1.435       .  S
C670       O1481   1.275       .  A
C670        C767   1.435       .  S
C671       O1480   1.276       .  A
C671        C766   1.435       .  S
C672       O1479   1.276       .  A
C672        C761   1.435       .  S
C673        C674   1.530   1_545  S
C673        C679   1.530       .  S
C673        C677   1.537       .  S
C673        C759   1.467       .  S
C674       H1497   1.087       .  S
C674       C1491   1.363       .  D
C675        C676   1.540       .  S
C675       C1490   1.363       .  D
C675        C757   1.442       .  S
C676        C680   1.539       .  S
C676       C1494   1.535       .  S
C676        H682   1.112       .  S
C677        H683   1.086       .  S
C677        C678   1.366       .  D
C678       C1492   1.535   1_545  S
C678       C1578   1.441       .  S
C679        H684   1.087       .  S
C679       C1496   1.362   1_545  D
C680       C1495   1.362       .  D
C680        C763   1.441       .  S
H681       C1490   1.087       .  S
C685        C686   1.529       .  S
C685        C691   1.531       .  S
C685        C689   1.538       .  S
C685        C755   1.467       .  S
C686        H693   1.087       .  S
C686       C1503   1.361   1_545  D
C687        C688   1.538       .  S
C687       C1502   1.361       .  D
C687        C765   1.440       .  S
C688        C692   1.539       .  S
C688       C1506   1.535       .  S
C688        H694   1.112       .  S
C689        H695   1.086       .  S
C689        C690   1.367       .  D
C690       C1504   1.535   1_545  S
C690        C768   1.440       .  S
C691        H696   1.087       .  S
C691       C1508   1.363   1_545  D
C692       C1507   1.363       .  D
C692        C753   1.441       .  S
O697       Cu705   2.011       .  S
O697        C707   1.276       .  A
O698       Cu705   2.011       .  S
O698        C708   1.277       .  A
O699       Cu705   2.006       .  S
O699        C709   1.276       .  A
O700       Cu705   2.008       .  S
O700        C710   1.276       .  A
O701       Cu706   2.007       .  S
O701        C710   1.276       .  A
O702       Cu706   2.008       .  S
O702        C709   1.276       .  A
O703       Cu706   2.007       .  S
O703        C708   1.276       .  A
O704       Cu706   2.004       .  S
O704        C707   1.276       .  A
Cu705      Cu706   2.381       .  S
C707        C787   1.433       .  S
C708        C756   1.434       .  S
C709        C770   1.432       .  S
C710        C801   1.433       .  S
O711       Cu719   2.013       .  S
O711        C721   1.277       .  A
O712       Cu719   2.012       .  S
O712        C722   1.277       .  A
O713       Cu719   2.014       .  S
O713        C723   1.277       .  A
O714       Cu719   2.012       .  S
O714        C724   1.277       .  A
O715       Cu720   2.012       .  S
O715        C724   1.277       .  A
O716       Cu720   2.013       .  S
O716        C723   1.277       .  A
O717       Cu720   2.010       .  S
O717        C722   1.276       .  A
O718       Cu720   2.012       .  S
O718        C721   1.277       .  A
Cu719      Cu720   2.379       .  S
C721        C786   1.437       .  S
C722        C754   1.436       .  S
C723        C772   1.438       .  S
C724        C804   1.437       .  S
O725       Cu733   2.010       .  S
O725        C735   1.276       .  A
O726       Cu733   2.010       .  S
O726        C736   1.277       .  A
O727       Cu733   2.004       .  S
O727        C737   1.276       .  A
O728       Cu733   2.006       .  S
O728        C738   1.275       .  A
O729       Cu734   2.015       .  S
O729        C738   1.277       .  A
O730       Cu734   2.014       .  S
O730        C737   1.277       .  A
O731       Cu734   2.015       .  S
O731        C736   1.277       .  A
O732       Cu734   2.015       .  S
O732        C735   1.277       .  A
Cu733      Cu734   2.380       .  S
C735        C807   1.437       .  S
C736        C775   1.437       .  S
C737        C760   1.434       .  S
C738        C789   1.435       .  S
O739       Cu747   2.008       .  S
O739        C749   1.276       .  A
O740       Cu747   2.009       .  S
O740        C750   1.276       .  A
O741       Cu747   2.007       .  S
O741        C751   1.276       .  A
O742       Cu747   2.008       .  S
O742        C752   1.276       .  A
O743       Cu748   2.013       .  S
O743        C752   1.276       .  A
O744       Cu748   2.012       .  S
O744        C751   1.277       .  A
O745       Cu748   2.014       .  S
O745        C750   1.277       .  A
O746       Cu748   2.014       .  S
O746        C749   1.277       .  A
Cu747      Cu748   2.380       .  S
C749        C792   1.436       .  S
C750        C758   1.436       .  S
C751        C774   1.434       .  S
C752        C805   1.435       .  S
C753        C754   1.206       .  T
C755        C756   1.206       .  T
C757        C758   1.206       .  T
C759        C760   1.205       .  T
C761        C762   1.206       .  T
C762       C1494   1.441       .  S
C763        C764   1.206       .  T
C765        C766   1.205       .  T
C767       C1584   1.205       .  T
C768       C1583   1.205       .  T
C769        C770   1.204       .  T
C771        C772   1.207       .  T
C773        C774   1.205       .  T
C775        C776   1.207       .  T
C777        C778   1.207       .  T
C779        C780   1.205       .  T
C781        C782   1.206       .  T
C783        C784   1.205       .  T
C785        C786   1.207       .  T
C787        C788   1.205       .  T
C789        C790   1.206       .  T
C791        C792   1.206       .  T
C793        C794   1.205       .  T
C795        C796   1.207       .  T
C797        C798   1.207       .  T
C799        C800   1.205       .  T
C801        C802   1.205       .  T
C803        C804   1.206       .  T
C805        C806   1.206       .  T
C807        C808   1.207       .  T
C809        C810   1.205       .  T
C810       C1372   1.434       .  S
C811        C812   1.207       .  T
C813       C1630   1.205       .  T
C814       C1629   1.205       .  T
C815        C816   1.206       .  T
O817       Cu825   2.006       .  S
O817        C827   1.277       .  A
O818       Cu825   2.009       .  S
O819       Cu825   2.011       .  S
O820       Cu825   2.012       .  S
O820        C830   1.276       .  A
O821       Cu826   2.011       .  S
O822       Cu826   2.014       .  S
O822        C829   1.277       .  A
O823       Cu826   2.008       .  S
O823        C828   1.277   1_565  A
O824       Cu826   2.011       .  S
C827       C1085   1.434       .  S
C829       C1084   1.437       .  S
C830       C1088   1.436       .  S
C831        C832   1.531   1_554  S
C831        C837   1.530       .  S
C831       C1379   1.539   1_554  S
C831       C1078   1.468       .  S
C833        C834   1.539       .  S
C833       C1080   1.443       .  S
C834       C1110   1.537       .  S
C834        H840   1.112       .  S
C835       C1103   1.539       .  S
C835        H841   1.086       .  S
C835        C836   1.368       .  D
C836       C1083   1.443       .  S
C837        H842   1.087       .  S
C838       C1378   1.537   1_554  S
C838       C1081   1.440       .  S
C843        C844   1.529       .  S
C843        C849   1.530       .  S
C843       C1119   1.538       .  S
C843       C1074   1.466       .  S
C844        H851   1.087       .  S
C845       C1118   1.538   1_545  S
C845       C1086   1.440   1_545  S
C846       C1389   1.538   1_564  S
C846        C850   1.540       .  S
C846        H852   1.112       .  S
C847       C1387   1.538   1_554  S
C847        H853   1.086       .  S
C847        C848   1.367       .  D
C848       C1087   1.442       .  S
C849        H854   1.087       .  S
C850       C1075   1.442       .  S
O855       Cu863   2.002       .  S
O855        C865   1.276       .  A
O856       Cu863   2.006       .  S
O856        C866   1.276       .  A
O857       Cu863   2.005       .  S
O857        C867   1.276       .  A
O858       Cu863   2.008       .  S
O858        C868   1.276       .  A
O859       Cu864   2.020       .  S
O859        C868   1.278       .  A
O860       Cu864   2.021       .  S
O860        C867   1.277       .  A
O861       Cu864   2.012       .  S
O861        C866   1.277       .  A
O862       Cu864   2.014       .  S
O862        C865   1.276       .  A
Cu863      Cu864   2.379       .  S
C865       C1065   1.433       .  S
C866       C1072   1.434       .  S
C867       C1069   1.437       .  S
C868       C1067   1.438       .  S
C869        C870   1.529       .  S
C869        C875   1.531       .  S
C869       C1145   1.539       .  S
C869       C1062   1.468       .  S
C870        H877   1.087       .  S
C870        C871   1.361       .  D
C871       C1144   1.538       .  S
C871       C1066   1.439       .  S
C872       C1415   1.538       .  S
C872        C876   1.540       .  S
C872        C874   1.536   1_556  S
C872        H878   1.112       .  S
C873       C1413   1.539   1_554  S
C873        H879   1.086       .  S
C873        C874   1.368       .  D
C874       C1068   1.444       .  S
C875        H880   1.087       .  S
C875       C1148   1.363       .  D
C876       C1419   1.363       .  D
C876       C1063   1.442   1_556  S
C881        C882   1.529       .  S
C881        C887   1.530       .  S
C881       C1157   1.536       .  S
C881       C1060   1.466       .  S
C882        H889   1.087       .  S
C882       C1155   1.362       .  D
C883        C884   1.542       .  S
C883       C1426   1.362       .  D
C883       C1057   1.442   1_556  S
C884       C1432   1.540       .  S
C884        C886   1.536   1_556  S
C884        H890   1.112   1_556  S
C885       C1425   1.536   1_554  S
C885        H891   1.086       .  S
C885        C886   1.366       .  D
C886       C1071   1.440       .  S
C887        H892   1.087       .  S
C887        C888   1.362       .  D
C888       C1156   1.540       .  S
C888       C1070   1.443       .  S
O893      Cu1445   2.016       .  S
O893        C903   1.278       .  A
O894       Cu901   2.018   1_655  S
O894        C904   1.277       .  A
O895      Cu1445   2.013   1_655  S
O895        C905   1.277       .  A
O896       Cu901   2.013       .  S
O896        C906   1.276       .  A
O897       Cu902   2.002   1_455  S
O897        C906   1.276       .  A
O898      Cu1446   2.006   1_554  S
O898        C905   1.276       .  A
O899       Cu902   2.005       .  S
O899        C904   1.276       .  A
O900      Cu1446   2.009   1_454  S
O900        C903   1.276       .  A
Cu901      O1165   2.016       .  S
Cu901      O1167   2.013   1_455  S
Cu901      Cu902   2.380   1_455  S
Cu902      O1170   2.006       .  S
Cu902      O1172   2.009   1_655  S
C903       C1049   1.437       .  S
C904       C1053   1.437       .  S
C905       C1055   1.434       .  S
C906       C1051   1.433       .  S
C907        C908   1.531       .  S
C907        C913   1.531       .  S
C907        C911   1.540       .  S
C907       C1048   1.469       .  S
C908        H915   1.087       .  S
C908        C909   1.361       .  D
C909        C910   1.536       .  S
C909       C1052   1.439       .  S
C910        C914   1.537       .  S
C910        C912   1.535       .  S
C910        H916   1.112       .  S
C911        H917   1.086       .  S
C911        C912   1.368       .  D
C912       C1050   1.443       .  S
C913        H918   1.087       .  S
C913        C914   1.363       .  D
C914       C1045   1.440       .  S
C919        C920   1.529       .  S
C919        C925   1.529       .  S
C919        C923   1.536       .  S
C919       C1041   1.465       .  S
C920        H927   1.087       .  S
C920        C921   1.363       .  D
C921        C922   1.543       .  S
C921       C1043   1.443       .  S
C922        C926   1.540       .  S
C922        C924   1.537       .  S
C922        H928   1.112       .  S
C923        H929   1.086       .  S
C923        C924   1.366       .  D
C924       C1056   1.441       .  S
C925        H930   1.087       .  S
C925        C926   1.361       .  D
C926       C1054   1.442       .  S
O931       Cu939   2.017   1_455  S
O931        C941   1.277       .  A
O932      Cu1483   2.015       .  S
O932        C942   1.278       .  A
O933       Cu939   2.015       .  S
O933        C943   1.276       .  A
O934      Cu1483   2.013   1_455  S
O934        C944   1.277       .  A
O935      Cu1484   2.007   1_554  S
O936       Cu940   2.004   1_655  S
O937      Cu1484   2.005   1_654  S
O938       Cu940   2.002       .  S
Cu939      O1204   2.015       .  S
Cu939      O1206   2.013   1_655  S
Cu940      O1207   2.007       .  S
Cu940      O1209   2.005   1_455  S
C941       C1036   1.435       .  S
C942       C1039   1.435   1_565  S
C943       C1038   1.435       .  S
C944       C1033   1.435       .  S
C945        C946   1.530       .  S
C945        C951   1.530       .  S
C945        C949   1.537       .  S
C945       C1031   1.467       .  S
C947        C948   1.540       .  S
C947       C1029   1.441       .  S
C948        C952   1.539       .  S
C948        H954   1.112       .  S
C949        H955   1.086       .  S
C949        C950   1.366       .  D
C951        H956   1.087       .  S
C952       C1035   1.441       .  S
C957        C958   1.529       .  S
C957        C963   1.531       .  S
C957        C961   1.538       .  S
C957       C1027   1.467       .  S
C958        H965   1.087       .  S
C959        C960   1.538       .  S
C959       C1037   1.440       .  S
C960        C964   1.539       .  S
C960        H966   1.112       .  S
C961        H967   1.086       .  S
C961        C962   1.367       .  D
C962       C1040   1.440       .  S
C963        H968   1.087       .  S
C964       C1025   1.441       .  S
O969       Cu977   2.011       .  S
O969        C979   1.276       .  A
O970       Cu977   2.011       .  S
O970        C980   1.277       .  A
O971       Cu977   2.006       .  S
O971        C981   1.276       .  A
O972       Cu977   2.008       .  S
O972        C982   1.276       .  A
O973       Cu978   2.007       .  S
O973        C982   1.276       .  A
O974       Cu978   2.008       .  S
O974        C981   1.276       .  A
O975       Cu978   2.007       .  S
O975        C980   1.276       .  A
O976       Cu978   2.004       .  S
O976        C979   1.276       .  A
Cu977      Cu978   2.381       .  S
C979       C1059   1.433       .  S
C980       C1028   1.434       .  S
C981       C1042   1.432       .  S
C982       C1073   1.433       .  S
O983       Cu991   2.013       .  S
O983        C993   1.277       .  A
O984       Cu991   2.012       .  S
O984        C994   1.277       .  A
O985       Cu991   2.014       .  S
O985        C995   1.277       .  A
O986       Cu991   2.012       .  S
O986        C996   1.277       .  A
O987       Cu992   2.012       .  S
O987        C996   1.277       .  A
O988       Cu992   2.013       .  S
O988        C995   1.277       .  A
O989       Cu992   2.010       .  S
O989        C994   1.276       .  A
O990       Cu992   2.012       .  S
O990        C993   1.277       .  A
Cu991      Cu992   2.379       .  S
C993       C1058   1.437       .  S
C994       C1026   1.436       .  S
C995       C1044   1.438       .  S
C996       C1076   1.437       .  S
O997      Cu1005   2.010       .  S
O997       C1007   1.276       .  A
O998      Cu1005   2.010       .  S
O998       C1008   1.277       .  A
O999      Cu1005   2.004       .  S
O999       C1009   1.276       .  A
O1000     Cu1005   2.006       .  S
O1000      C1010   1.275       .  A
O1001     Cu1006   2.015       .  S
O1001      C1010   1.278       .  A
O1002     Cu1006   2.014       .  S
O1002      C1009   1.277       .  A
O1003     Cu1006   2.015       .  S
O1003      C1008   1.277       .  A
O1004     Cu1006   2.015       .  S
O1004      C1007   1.277       .  A
Cu1005    Cu1006   2.379       .  S
C1007      C1079   1.437       .  S
C1008      C1047   1.437       .  S
C1009      C1032   1.434       .  S
C1010      C1061   1.435       .  S
O1011     Cu1019   2.008       .  S
O1011      C1021   1.276       .  A
O1012     Cu1019   2.008       .  S
O1012      C1022   1.276       .  A
O1013     Cu1019   2.007       .  S
O1013      C1023   1.276       .  A
O1014     Cu1019   2.008       .  S
O1014      C1024   1.276       .  A
O1015     Cu1020   2.013       .  S
O1015      C1024   1.276       .  A
O1016     Cu1020   2.012       .  S
O1016      C1023   1.277       .  A
O1017     Cu1020   2.014       .  S
O1017      C1022   1.277       .  A
O1018     Cu1020   2.014       .  S
O1018      C1021   1.277       .  A
Cu1019    Cu1020   2.380       .  S
C1021      C1064   1.436       .  S
C1022      C1030   1.436       .  S
C1023      C1046   1.434       .  S
C1024      C1077   1.435       .  S
C1025      C1026   1.206       .  T
C1027      C1028   1.206       .  T
C1029      C1030   1.206       .  T
C1031      C1032   1.205       .  T
C1033      C1034   1.206   1_565  T
C1035      C1036   1.206       .  T
C1037      C1038   1.205       .  T
C1041      C1042   1.204       .  T
C1043      C1044   1.207       .  T
C1045      C1046   1.205       .  T
C1047      C1048   1.207       .  T
C1049      C1050   1.207       .  T
C1051      C1052   1.205       .  T
C1053      C1054   1.206       .  T
C1055      C1056   1.205       .  T
C1057      C1058   1.207       .  T
C1059      C1060   1.205       .  T
C1061      C1062   1.206       .  T
C1063      C1064   1.206       .  T
C1065      C1066   1.205       .  T
C1067      C1068   1.207       .  T
C1069      C1070   1.207       .  T
C1071      C1072   1.205       .  T
C1073      C1074   1.205       .  T
C1075      C1076   1.206       .  T
C1077      C1078   1.206       .  T
C1079      C1080   1.207       .  T
C1081      C1082   1.205       .  T
C1083      C1084   1.207       .  T
C1087      C1088   1.206       .  T
O1089     Cu1097   2.007       .  S
O1089      C1099   1.277       .  A
O1090     Cu1097   2.009       .  S
O1091     Cu1097   2.011       .  S
O1092     Cu1097   2.012       .  S
O1092      C1102   1.276       .  A
O1093     Cu1098   2.011       .  S
O1094     Cu1098   2.014       .  S
O1094      C1101   1.277       .  A
O1095     Cu1098   2.008       .  S
O1095      C1100   1.277   1_565  A
O1096     Cu1098   2.011       .  S
C1099      C1357   1.434       .  S
C1101      C1356   1.437       .  S
C1102      C1360   1.436       .  S
C1103      C1104   1.531       .  S
C1103      C1109   1.530       .  S
C1103      C1350   1.468       .  S
C1105      C1106   1.539       .  S
C1105      C1352   1.443       .  S
C1106      C1382   1.537       .  S
C1106      H1112   1.112       .  S
C1107      C1375   1.539       .  S
C1107      H1113   1.086       .  S
C1107      C1108   1.368       .  D
C1108      C1355   1.443       .  S
C1109      H1114   1.087       .  S
C1110      C1353   1.440       .  S
C1115      C1116   1.529       .  S
C1115      C1121   1.530       .  S
C1115      C1391   1.538       .  S
C1115      C1346   1.465       .  S
C1116      H1123   1.087       .  S
C1117      C1390   1.538   1_545  S
C1117      C1358   1.440   1_545  S
C1118      C1122   1.540       .  S
C1118      H1124   1.112       .  S
C1119      H1125   1.086       .  S
C1119      C1120   1.367       .  D
C1120      C1359   1.442       .  S
C1121      H1126   1.087       .  S
C1122      C1347   1.442       .  S
O1127     Cu1135   2.002       .  S
O1127      C1137   1.276       .  A
O1128     Cu1135   2.006       .  S
O1128      C1138   1.276       .  A
O1129     Cu1135   2.005       .  S
O1129      C1139   1.276       .  A
O1130     Cu1135   2.008       .  S
O1130      C1140   1.276       .  A
O1131     Cu1136   2.020       .  S
O1131      C1140   1.278       .  A
O1132     Cu1136   2.021       .  S
O1132      C1139   1.277       .  A
O1133     Cu1136   2.012       .  S
O1133      C1138   1.277       .  A
O1134     Cu1136   2.014       .  S
O1134      C1137   1.276       .  A
Cu1135    Cu1136   2.379       .  S
C1137      C1337   1.433       .  S
C1138      C1344   1.434       .  S
C1139      C1341   1.437       .  S
C1140      C1339   1.438       .  S
C1141      C1142   1.529       .  S
C1141      C1147   1.531       .  S
C1141      C1417   1.539       .  S
C1141      C1334   1.468       .  S
C1142      H1149   1.087       .  S
C1142      C1143   1.361       .  D
C1143      C1416   1.538       .  S
C1143      C1338   1.439       .  S
C1144      C1148   1.540       .  S
C1144      C1146   1.536       .  S
C1144      H1150   1.112       .  S
C1145      H1151   1.086       .  S
C1145      C1146   1.368       .  D
C1146      C1340   1.444       .  S
C1147      H1152   1.087       .  S
C1147      C1420   1.363       .  D
C1148      C1335   1.442       .  S
C1153      C1154   1.529       .  S
C1153      C1159   1.530       .  S
C1153      C1429   1.536       .  S
C1153      C1332   1.466       .  S
C1154      H1161   1.087       .  S
C1154      C1427   1.362       .  D
C1155      C1156   1.542       .  S
C1155      C1329   1.442       .  S
C1156      C1158   1.536       .  S
C1156      H1162   1.112       .  S
C1157      H1163   1.086       .  S
C1157      C1158   1.366       .  D
C1158      C1343   1.440       .  S
C1159      H1164   1.087       .  S
C1159      C1160   1.362       .  D
C1160      C1428   1.540       .  S
C1160      C1342   1.443       .  S
O1165      C1175   1.278       .  A
O1166     Cu1173   2.018   1_655  S
O1166      C1176   1.277       .  A
O1167      C1177   1.277       .  A
O1168     Cu1173   2.013       .  S
O1168      C1178   1.276       .  A
O1169     Cu1174   2.002   1_455  S
O1169      C1178   1.276       .  A
O1170      C1177   1.276       .  A
O1171     Cu1174   2.005       .  S
O1171      C1176   1.276       .  A
O1172      C1175   1.276       .  A
Cu1173     O1437   2.016       .  S
Cu1173     O1439   2.013   1_455  S
Cu1173    Cu1174   2.380   1_455  S
Cu1174     O1442   2.006       .  S
Cu1174     O1444   2.009   1_655  S
C1175      C1321   1.437       .  S
C1176      C1325   1.437       .  S
C1177      C1327   1.434       .  S
C1178      C1323   1.433       .  S
C1179      C1180   1.531       .  S
C1179      C1185   1.531       .  S
C1179      C1183   1.540       .  S
C1179      C1320   1.469       .  S
C1180      H1187   1.087       .  S
C1180      C1181   1.361       .  D
C1181      C1182   1.536       .  S
C1181      C1324   1.439       .  S
C1182      C1186   1.537       .  S
C1182      C1184   1.535       .  S
C1182      H1188   1.112       .  S
C1183      H1189   1.086       .  S
C1183      C1184   1.368       .  D
C1184      C1322   1.443       .  S
C1185      H1190   1.087       .  S
C1185      C1186   1.363       .  D
C1186      C1317   1.440       .  S
C1191      C1192   1.529       .  S
C1191      C1197   1.529       .  S
C1191      C1195   1.536       .  S
C1191      C1313   1.465       .  S
C1192      H1199   1.087       .  S
C1192      C1193   1.363       .  D
C1193      C1194   1.543       .  S
C1193      C1315   1.443       .  S
C1194      C1198   1.540       .  S
C1194      C1196   1.537       .  S
C1194      H1200   1.112       .  S
C1195      H1201   1.086       .  S
C1195      C1196   1.366       .  D
C1196      C1328   1.441       .  S
C1197      H1202   1.087       .  S
C1197      C1198   1.361       .  D
C1198      C1326   1.442       .  S
O1203     Cu1211   2.017   1_455  S
O1203      C1213   1.277       .  A
O1204      C1214   1.277       .  A
O1205     Cu1211   2.015       .  S
O1205      C1215   1.276       .  A
O1206      C1216   1.277       .  A
O1208     Cu1212   2.004   1_655  S
O1210     Cu1212   2.002       .  S
Cu1211     O1476   2.015       .  S
Cu1211     O1478   2.013   1_655  S
Cu1212     O1479   2.007       .  S
Cu1212     O1481   2.005   1_455  S
C1213      C1308   1.435       .  S
C1214      C1311   1.435   1_565  S
C1215      C1310   1.435       .  S
C1216      C1305   1.435       .  S
C1217      C1218   1.530       .  S
C1217      C1223   1.530       .  S
C1217      C1221   1.537       .  S
C1217      C1303   1.467       .  S
C1219      C1220   1.540       .  S
C1219      C1301   1.441       .  S
C1220      C1224   1.539       .  S
C1220      H1226   1.112       .  S
C1221      H1227   1.086       .  S
C1221      C1222   1.366       .  D
C1223      H1228   1.087       .  S
C1224      C1307   1.441       .  S
C1229      C1230   1.529       .  S
C1229      C1235   1.531       .  S
C1229      C1233   1.538       .  S
C1229      C1299   1.467       .  S
C1230      H1237   1.087       .  S
C1231      C1232   1.538       .  S
C1231      C1309   1.440       .  S
C1232      C1236   1.539       .  S
C1232      H1238   1.112       .  S
C1233      H1239   1.086       .  S
C1233      C1234   1.367       .  D
C1234      C1312   1.440       .  S
C1235      H1240   1.087       .  S
C1236      C1297   1.441       .  S
O1241     Cu1249   2.011       .  S
O1241      C1251   1.276       .  A
O1242     Cu1249   2.011       .  S
O1242      C1252   1.277       .  A
O1243     Cu1249   2.006       .  S
O1243      C1253   1.276       .  A
O1244     Cu1249   2.008       .  S
O1244      C1254   1.276       .  A
O1245     Cu1250   2.007       .  S
O1245      C1254   1.276       .  A
O1246     Cu1250   2.008       .  S
O1246      C1253   1.276       .  A
O1247     Cu1250   2.007       .  S
O1247      C1252   1.276       .  A
O1248     Cu1250   2.004       .  S
O1248      C1251   1.276       .  A
Cu1249    Cu1250   2.381       .  S
C1251      C1331   1.433       .  S
C1252      C1300   1.434       .  S
C1253      C1314   1.432       .  S
C1254      C1345   1.433       .  S
O1255     Cu1263   2.013       .  S
O1255      C1265   1.277       .  A
O1256     Cu1263   2.012       .  S
O1256      C1266   1.277       .  A
O1257     Cu1263   2.014       .  S
O1257      C1267   1.277       .  A
O1258     Cu1263   2.012       .  S
O1258      C1268   1.277       .  A
O1259     Cu1264   2.012       .  S
O1259      C1268   1.277       .  A
O1260     Cu1264   2.013       .  S
O1260      C1267   1.277       .  A
O1261     Cu1264   2.010       .  S
O1261      C1266   1.276       .  A
O1262     Cu1264   2.012       .  S
O1262      C1265   1.277       .  A
Cu1263    Cu1264   2.379       .  S
C1265      C1330   1.437       .  S
C1266      C1298   1.436       .  S
C1267      C1316   1.438       .  S
C1268      C1348   1.437       .  S
O1269     Cu1277   2.010       .  S
O1269      C1279   1.276       .  A
O1270     Cu1277   2.010       .  S
O1270      C1280   1.277       .  A
O1271     Cu1277   2.004       .  S
O1271      C1281   1.276       .  A
O1272     Cu1277   2.005       .  S
O1272      C1282   1.275       .  A
O1273     Cu1278   2.015       .  S
O1273      C1282   1.277       .  A
O1274     Cu1278   2.014       .  S
O1274      C1281   1.277       .  A
O1275     Cu1278   2.015       .  S
O1275      C1280   1.277       .  A
O1276     Cu1278   2.015       .  S
O1276      C1279   1.277       .  A
Cu1277    Cu1278   2.380       .  S
C1279      C1351   1.437       .  S
C1280      C1319   1.436       .  S
C1281      C1304   1.434       .  S
C1282      C1333   1.435       .  S
O1283     Cu1291   2.008       .  S
O1283      C1293   1.276       .  A
O1284     Cu1291   2.009       .  S
O1284      C1294   1.276       .  A
O1285     Cu1291   2.007       .  S
O1285      C1295   1.276       .  A
O1286     Cu1291   2.008       .  S
O1286      C1296   1.276       .  A
O1287     Cu1292   2.013       .  S
O1287      C1296   1.276       .  A
O1288     Cu1292   2.012       .  S
O1288      C1295   1.277       .  A
O1289     Cu1292   2.014       .  S
O1289      C1294   1.277       .  A
O1290     Cu1292   2.014       .  S
O1290      C1293   1.277       .  A
Cu1291    Cu1292   2.380       .  S
C1293      C1336   1.436       .  S
C1294      C1302   1.436       .  S
C1295      C1318   1.434       .  S
C1296      C1349   1.435       .  S
C1297      C1298   1.206       .  T
C1299      C1300   1.205       .  T
C1301      C1302   1.206       .  T
C1303      C1304   1.205       .  T
C1305      C1306   1.206   1_565  T
C1307      C1308   1.206       .  T
C1309      C1310   1.205       .  T
C1313      C1314   1.204       .  T
C1315      C1316   1.207       .  T
C1317      C1318   1.205       .  T
C1319      C1320   1.207       .  T
C1321      C1322   1.207       .  T
C1323      C1324   1.205       .  T
C1325      C1326   1.206       .  T
C1327      C1328   1.205       .  T
C1329      C1330   1.207       .  T
C1331      C1332   1.205       .  T
C1333      C1334   1.206       .  T
C1335      C1336   1.206       .  T
C1337      C1338   1.205       .  T
C1339      C1340   1.207       .  T
C1341      C1342   1.207       .  T
C1343      C1344   1.205       .  T
C1345      C1346   1.205       .  T
C1347      C1348   1.206       .  T
C1349      C1350   1.206       .  T
C1351      C1352   1.207       .  T
C1353      C1354   1.205       .  T
C1355      C1356   1.207       .  T
C1359      C1360   1.206       .  T
O1361     Cu1369   2.007       .  S
O1361      C1371   1.277       .  A
O1362     Cu1369   2.009       .  S
O1363     Cu1369   2.011       .  S
O1364     Cu1369   2.012       .  S
O1364      C1374   1.276       .  A
O1365     Cu1370   2.011       .  S
O1366     Cu1370   2.013       .  S
O1366      C1373   1.277       .  A
O1367     Cu1370   2.008       .  S
O1367      C1372   1.277   1_565  A
O1368     Cu1370   2.011       .  S
C1371      C1629   1.434       .  S
C1373      C1628   1.437       .  S
C1374      C1632   1.436       .  S
C1375      C1376   1.531       .  S
C1375      C1381   1.530       .  S
C1375      C1622   1.468       .  S
C1377      C1378   1.539       .  S
C1377      C1624   1.443       .  S
C1378      H1384   1.112       .  S
C1379      H1385   1.086       .  S
C1379      C1380   1.368       .  D
C1380      C1627   1.443       .  S
C1381      H1386   1.087       .  S
C1382      C1625   1.440       .  S
C1387      C1388   1.529       .  S
C1387      C1393   1.530       .  S
C1387      C1618   1.466       .  S
C1388      H1395   1.087       .  S
C1389      C1630   1.440   1_545  S
C1390      C1394   1.540       .  S
C1390      H1396   1.112       .  S
C1391      H1397   1.086       .  S
C1391      C1392   1.367       .  D
C1392      C1631   1.442       .  S
C1393      H1398   1.087   1_556  S
C1394      C1619   1.442       .  S
O1399     Cu1407   2.002       .  S
O1399      C1409   1.276       .  A
O1400     Cu1407   2.006       .  S
O1400      C1410   1.276       .  A
O1401     Cu1407   2.005       .  S
O1401      C1411   1.276       .  A
O1402     Cu1407   2.008       .  S
O1402      C1412   1.276       .  A
O1403     Cu1408   2.020       .  S
O1403      C1412   1.278       .  A
O1404     Cu1408   2.021       .  S
O1404      C1411   1.277       .  A
O1405     Cu1408   2.012       .  S
O1405      C1410   1.277       .  A
O1406     Cu1408   2.014       .  S
O1406      C1409   1.276       .  A
Cu1407    Cu1408   2.379       .  S
C1409      C1609   1.433       .  S
C1410      C1616   1.434       .  S
C1411      C1613   1.437       .  S
C1412      C1611   1.438       .  S
C1413      C1414   1.529       .  S
C1413      C1419   1.531       .  S
C1413      C1606   1.468       .  S
C1414      H1421   1.087       .  S
C1414      C1415   1.361       .  D
C1415      C1610   1.439       .  S
C1416      C1420   1.540       .  S
C1416      C1418   1.536       .  S
C1416      H1422   1.112       .  S
C1417      H1423   1.086       .  S
C1417      C1418   1.368       .  D
C1418      C1612   1.444       .  S
C1419      H1424   1.087       .  S
C1420      C1607   1.442       .  S
C1425      C1426   1.529       .  S
C1425      C1431   1.530       .  S
C1425      C1604   1.466       .  S
C1426      H1433   1.087       .  S
C1427      C1428   1.542       .  S
C1427      C1601   1.442       .  S
C1428      C1430   1.536       .  S
C1428      H1434   1.112       .  S
C1429      H1435   1.086       .  S
C1429      C1430   1.366       .  D
C1430      C1615   1.440       .  S
C1431      H1436   1.087       .  S
C1431      C1432   1.362       .  D
C1432      C1614   1.443       .  S
O1437      C1447   1.278       .  A
O1438     Cu1445   2.018   1_656  S
O1438      C1448   1.277       .  A
O1439      C1449   1.277       .  A
O1440     Cu1445   2.013   1_556  S
O1440      C1450   1.276       .  A
O1441     Cu1446   2.002   1_455  S
O1441      C1450   1.276       .  A
O1442      C1449   1.276       .  A
O1443     Cu1446   2.005       .  S
O1443      C1448   1.276       .  A
O1444      C1447   1.276       .  A
Cu1445    Cu1446   2.380   1_454  S
C1447      C1593   1.437       .  S
C1448      C1597   1.437       .  S
C1449      C1599   1.434       .  S
C1450      C1595   1.433       .  S
C1451      C1452   1.531       .  S
C1451      C1457   1.531       .  S
C1451      C1455   1.540       .  S
C1451      C1592   1.469       .  S
C1452      H1459   1.087       .  S
C1452      C1453   1.361       .  D
C1453      C1454   1.536       .  S
C1453      C1596   1.439       .  S
C1454      C1458   1.537       .  S
C1454      C1456   1.535       .  S
C1454      H1460   1.112       .  S
C1455      H1461   1.086       .  S
C1455      C1456   1.368       .  D
C1456      C1594   1.443       .  S
C1457      H1462   1.087       .  S
C1457      C1458   1.363       .  D
C1458      C1589   1.440       .  S
C1463      C1464   1.529       .  S
C1463      C1469   1.529       .  S
C1463      C1467   1.536       .  S
C1463      C1585   1.465       .  S
C1464      H1471   1.087       .  S
C1464      C1465   1.363       .  D
C1465      C1466   1.543       .  S
C1465      C1587   1.443       .  S
C1466      C1470   1.540       .  S
C1466      C1468   1.537       .  S
C1466      H1472   1.112       .  S
C1467      H1473   1.086       .  S
C1467      C1468   1.366       .  D
C1468      C1600   1.441       .  S
C1469      H1474   1.087       .  S
C1469      C1470   1.361       .  D
C1470      C1598   1.442       .  S
O1475     Cu1483   2.017   1_456  S
O1475      C1485   1.277       .  A
O1476      C1486   1.277       .  A
O1477     Cu1483   2.015   1_556  S
O1477      C1487   1.276       .  A
O1478      C1488   1.277       .  A
O1480     Cu1484   2.004   1_655  S
O1482     Cu1484   2.002       .  S
C1485      C1580   1.435       .  S
C1486      C1583   1.435   1_565  S
C1487      C1582   1.435       .  S
C1488      C1577   1.435       .  S
C1489      C1490   1.530       .  S
C1489      C1495   1.530       .  S
C1489      C1493   1.537       .  S
C1489      C1575   1.467       .  S
C1491      C1492   1.540       .  S
C1491      C1573   1.442       .  S
C1492      C1496   1.539       .  S
C1492      H1498   1.112       .  S
C1493      H1499   1.086       .  S
C1493      C1494   1.366       .  D
C1495      H1500   1.087       .  S
C1496      C1579   1.441       .  S
C1501      C1502   1.529       .  S
C1501      C1507   1.531       .  S
C1501      C1505   1.538       .  S
C1501      C1571   1.467       .  S
C1502      H1509   1.087       .  S
C1503      C1504   1.538       .  S
C1503      C1581   1.440       .  S
C1504      C1508   1.539       .  S
C1504      H1510   1.112       .  S
C1505      H1511   1.086       .  S
C1505      C1506   1.367       .  D
C1506      C1584   1.440       .  S
C1507      H1512   1.087       .  S
C1508      C1569   1.441       .  S
O1513     Cu1521   2.011       .  S
O1513      C1523   1.276       .  A
O1514     Cu1521   2.011       .  S
O1514      C1524   1.277       .  A
O1515     Cu1521   2.006       .  S
O1515      C1525   1.276       .  A
O1516     Cu1521   2.008       .  S
O1516      C1526   1.276       .  A
O1517     Cu1522   2.007       .  S
O1517      C1526   1.276       .  A
O1518     Cu1522   2.008       .  S
O1518      C1525   1.276       .  A
O1519     Cu1522   2.007       .  S
O1519      C1524   1.276       .  A
O1520     Cu1522   2.004       .  S
O1520      C1523   1.276       .  A
Cu1521    Cu1522   2.381       .  S
C1523      C1603   1.433       .  S
C1524      C1572   1.434       .  S
C1525      C1586   1.432       .  S
C1526      C1617   1.433       .  S
O1527     Cu1535   2.013       .  S
O1527      C1537   1.277       .  A
O1528     Cu1535   2.012       .  S
O1528      C1538   1.277       .  A
O1529     Cu1535   2.014       .  S
O1529      C1539   1.277       .  A
O1530     Cu1535   2.012       .  S
O1530      C1540   1.277       .  A
O1531     Cu1536   2.012       .  S
O1531      C1540   1.277       .  A
O1532     Cu1536   2.013       .  S
O1532      C1539   1.277       .  A
O1533     Cu1536   2.010       .  S
O1533      C1538   1.276       .  A
O1534     Cu1536   2.012       .  S
O1534      C1537   1.277       .  A
Cu1535    Cu1536   2.379       .  S
C1537      C1602   1.437       .  S
C1538      C1570   1.436       .  S
C1539      C1588   1.438       .  S
C1540      C1620   1.437       .  S
O1541     Cu1549   2.010       .  S
O1541      C1551   1.276       .  A
O1542     Cu1549   2.010       .  S
O1542      C1552   1.277       .  A
O1543     Cu1549   2.004       .  S
O1543      C1553   1.276       .  A
O1544     Cu1549   2.006       .  S
O1544      C1554   1.275       .  A
O1545     Cu1550   2.015       .  S
O1545      C1554   1.277       .  A
O1546     Cu1550   2.014       .  S
O1546      C1553   1.277       .  A
O1547     Cu1550   2.015       .  S
O1547      C1552   1.277       .  A
O1548     Cu1550   2.015       .  S
O1548      C1551   1.277       .  A
Cu1549    Cu1550   2.380       .  S
C1551      C1623   1.437       .  S
C1552      C1591   1.436       .  S
C1553      C1576   1.434       .  S
C1554      C1605   1.435       .  S
O1555     Cu1563   2.008       .  S
O1555      C1565   1.276       .  A
O1556     Cu1563   2.009       .  S
O1556      C1566   1.276       .  A
O1557     Cu1563   2.007       .  S
O1557      C1567   1.276       .  A
O1558     Cu1563   2.008       .  S
O1558      C1568   1.276       .  A
O1559     Cu1564   2.013       .  S
O1559      C1568   1.276       .  A
O1560     Cu1564   2.012       .  S
O1560      C1567   1.277       .  A
O1561     Cu1564   2.014       .  S
O1561      C1566   1.277       .  A
O1562     Cu1564   2.014       .  S
O1562      C1565   1.277       .  A
Cu1563    Cu1564   2.380       .  S
C1565      C1608   1.436       .  S
C1566      C1574   1.436       .  S
C1567      C1590   1.434       .  S
C1568      C1621   1.435       .  S
C1569      C1570   1.206       .  T
C1571      C1572   1.205       .  T
C1573      C1574   1.206       .  T
C1575      C1576   1.205       .  T
C1577      C1578   1.206   1_565  T
C1579      C1580   1.206       .  T
C1581      C1582   1.205       .  T
C1585      C1586   1.204       .  T
C1587      C1588   1.207       .  T
C1589      C1590   1.205       .  T
C1591      C1592   1.207       .  T
C1593      C1594   1.207       .  T
C1595      C1596   1.205       .  T
C1597      C1598   1.206       .  T
C1599      C1600   1.205       .  T
C1601      C1602   1.207       .  T
C1603      C1604   1.205       .  T
C1605      C1606   1.206       .  T
C1607      C1608   1.206       .  T
C1609      C1610   1.205       .  T
C1611      C1612   1.207       .  T
C1613      C1614   1.207       .  T
C1615      C1616   1.205       .  T
C1617      C1618   1.205       .  T
C1619      C1620   1.206       .  T
C1621      C1622   1.206       .  T
C1623      C1624   1.207       .  T
C1625      C1626   1.205       .  T
C1627      C1628   1.207       .  T
C1631      C1632   1.206       .  T
