geometry optimzed in LAMMPS
_audit_creation_date              2020-12-01 
_audit_creation_method            'lammps2cif' 
_symmetry_space_group_name_H-M    'P1' 
_symmetry_Int_Tables_number       1 
_symmetry_cell_setting            triclinic 
loop_ 
_symmetry_equiv_pos_as_xyz 
  x,y,z 
_cell_length_a                    51.79173946 
_cell_length_b                    34.65829489932612 
_cell_length_c                    33.351595101216375 
_cell_angle_alpha                 90.45627685249511 
_cell_angle_beta                  89.97307592976318 
_cell_angle_gamma                 89.20333196354734 
loop_ 
_atom_site_label 
_atom_site_type_symbol 
_atom_site_fract_x 
_atom_site_fract_y 
_atom_site_fract_z 
_atom_site_charge 
C1          C  0.50864208  0.00898912  0.20761371     0.03200
C2          C  0.48141726  0.00976578  0.20740867     0.03200
C3          C  0.46792377  0.00810685  0.24374689    -0.17300
C4          C  0.48101694  0.00533028  0.28051814     0.03200
C5          C  0.50834623  0.00474041  0.28090688     0.03200
C6          C  0.52184250  0.00640441  0.24431698    -0.17300
H7          H  0.54277879  0.00593880  0.24440865     0.05200
H8          H  0.44698695  0.00784459  0.24331131     0.05200
O9          O  0.37548270  0.06145396  0.48568715    -0.56900
C10         C  0.42067201  0.00470397  0.06232426     0.75800
O11         O  0.35882781  0.93715152  0.97848801    -0.58000
C12         C  0.35131545  0.05680384  0.48383729     0.75700
C13         C  0.41688003  0.99176493  0.42181249     0.78100
Cd14       Cd  0.38654437  0.99366774  0.99485859     1.37500
O15         O  0.40376003  0.02995374  0.05352060    -0.56900
O16         O  0.39917055  0.01631614  0.42853177    -0.55700
C17         C  0.35384266  0.92995616  0.01488825     0.78100
O18         O  0.41989846  0.96604395  0.44820917    -0.58100
O19         O  0.42234637  0.97585346  0.03897698    -0.56500
O20         O  0.34325921  0.02307366  0.49020052    -0.56500
O21         O  0.36451482  0.95123452  0.04073558    -0.55700
O22         O  0.62798735  0.06868848  0.50407830    -0.56900
C23         C  0.56870667  0.01015203  0.06123875     0.75800
O24         O  0.58608197  0.97417580  0.43416441    -0.58000
C25         C  0.64076490  0.06610816  0.47173604     0.75700
C26         C  0.63869588  0.94634457  0.02560804     0.78100
Cd27       Cd  0.60475593  0.00647816  0.49469820     1.37500
O28         O  0.57860770  0.04075497  0.04784672    -0.56900
O29         O  0.63541181  0.97821360  0.04376750    -0.55700
C30         C  0.57056140  0.00149003  0.42556041     0.78100
O31         O  0.62673453  0.94254421  0.99265370    -0.58100
O32         O  0.57448036  0.97928223  0.04266142    -0.56500
O33         O  0.63720908  0.03596726  0.45096812    -0.56500
O34         O  0.57063417  0.03021372  0.44920660    -0.55700
C35         C  0.48093205  0.48897136  0.22476416     0.03200
C36         C  0.50822644  0.48745943  0.22256720     0.03200
C37         C  0.52277540  0.48958948  0.25807316    -0.17300
C38         C  0.51072187  0.49420142  0.29552846     0.03200
C39         C  0.48351435  0.49610428  0.29770615     0.03200
C40         C  0.46897269  0.49339729  0.26237984    -0.17300
H41         H  0.44806733  0.49406143  0.26428018     0.05200
H42         H  0.54368846  0.48864055  0.25647239     0.05200
O43         O  0.36509950  0.45178300  0.46003196    -0.56900
C44         C  0.41716411  0.48441059  0.08209430     0.75800
O45         O  0.40471677  0.52398830  0.44859619    -0.58000
C46         C  0.35418806  0.42980129  0.48463864     0.75700
C47         C  0.35167807  0.55458912  0.02032729     0.78100
Cd48       Cd  0.38762460  0.49137908  0.00850548     1.37500
O49         O  0.41728120  0.45731975  0.05641708    -0.56900
O50         O  0.37579016  0.55972435  0.01751560    -0.55700
C51         C  0.42344572  0.50062938  0.44347330     0.78100
O52         O  0.34409721  0.52021502  0.01656617    -0.58100
O53         O  0.40288266  0.51317719  0.07411302    -0.56500
O54         O  0.35934201  0.43520976  0.52140830    -0.56500
O55         O  0.42606163  0.47458386  0.46951493    -0.55700
O56         O  0.58621280  0.46435511  0.06885946    -0.56900
C57         C  0.64080466  0.44381476  0.48224896     0.75800
O58         O  0.57671880  0.53074467  0.45856700    -0.58000
C59         C  0.56918580  0.48969075  0.07742420     0.75700
C60         C  0.63743540  0.56156283  0.03608478     0.78100
Cd61       Cd  0.60408840  0.49974096  0.01082273     1.37500
O62         O  0.63702720  0.47539447  0.96483298    -0.56900
O63         O  0.62381451  0.56426860  0.00467114    -0.55700
C64         C  0.57101316  0.49927096  0.44127746     0.78100
O65         O  0.63586479  0.53025503  0.05504335    -0.58100
O66         O  0.62788725  0.43837722  0.51397557    -0.56500
O67         O  0.56809293  0.51866078  0.05462170    -0.56500
O68         O  0.57981245  0.46882495  0.45714654    -0.55700
C69         C  0.98607303  0.50257479  0.03625736     0.03200
C70         C  0.01308461  0.50820053  0.03429381     0.03200
C71         C  0.02508474  0.51301122  0.99693315    -0.17300
C72         C  0.01119530  0.51138335  0.46080306     0.03200
C73         C  0.98417949  0.50621189  0.46275352     0.03200
C74         C  0.97184338  0.50205695  0.00036819    -0.14100
H75         H  0.95106444  0.49882033  0.00151631     0.05200
H76         H  0.04586704  0.51625124  0.99564883     0.05200
O77         O  0.12953427  0.43763850  0.24433635    -0.56900
C78         C  0.07595091  0.50119758  0.17726027     0.75800
O79         O  0.08816735  0.53594944  0.30706157    -0.58000
C80         C  0.14094723  0.44017876  0.27782949     0.75700
C81         C  0.14303549  0.56021642  0.22401654     0.78100
Cd82       Cd  0.10761100  0.50194474  0.24879811     1.37500
O83         O  0.08458608  0.47004821  0.19219525    -0.56900
O84         O  0.14115602  0.52811334  0.20601860    -0.55700
C85         C  0.07142271  0.51066542  0.31433350     0.78100
O86         O  0.12929691  0.56494070  0.25516388    -0.58100
O87         O  0.08132843  0.53187874  0.19604989    -0.56500
O88         O  0.13731578  0.47131542  0.29710733    -0.56500
O89         O  0.07046415  0.48264973  0.28980997    -0.55700
O90         O  0.90820162  0.46973212  0.18755229    -0.56900
C91         C  0.85262987  0.43971697  0.26683269     0.75800
O92         O  0.90985559  0.53524697  0.30582847    -0.58000
C93         C  0.92484552  0.49567727  0.18196601     0.75700
C94         C  0.85522590  0.56274861  0.22156469     0.78100
Cd95       Cd  0.88871094  0.50055364  0.24844048     1.37500
O96         O  0.87462628  0.43227486  0.25184973    -0.56900
O97         O  0.86736535  0.54089730  0.19730689    -0.55700
C98         C  0.92010997  0.50516371  0.32061212     0.78100
O99         O  0.85891500  0.55650801  0.25854688    -0.58100
O100        O  0.84668362  0.47500132  0.27097772    -0.56500
O101        O  0.92515063  0.52267712  0.20772760    -0.56500
O102        O  0.91607466  0.47403335  0.30191123    -0.55700
C103        C  0.98322958  0.99621953  0.03931044     0.03200
C104        C  0.01033917  0.99927744  0.03898736     0.03200
C105        C  0.02356390  0.99893652  0.00235240    -0.17300
C106        C  0.01062529  0.99403543  0.46607957     0.03200
C107        C  0.98349774  0.99054013  0.46636024     0.03200
C108        C  0.96982256  0.99241135  0.00302479    -0.17300
H109        H  0.94893916  0.99057150  0.00337277     0.05200
H110        H  0.04444133  0.00095982  0.00212503     0.05200
O111        O  0.08400705  0.03171307  0.19538850    -0.56900
C112        C  0.13990864  0.05725038  0.28039757     0.75800
O113        O  0.08181674  0.96323510  0.30651359    -0.58000
C114        C  0.07057677  0.00310620  0.18473242     0.75700
C115        C  0.14067705  0.93930799  0.22567401     0.78100
Cd116      Cd  0.10495963  0.99833788  0.25306210     1.37500
O117        O  0.13834766  0.02476031  0.29713135    -0.56900
O118        O  0.13559759  0.96955183  0.20609568    -0.55700
C119        C  0.07046562  0.99309544  0.32036336     0.78100
O120        O  0.12969703  0.93636251  0.25945988    -0.58100
O121        O  0.12537446  0.06268493  0.25033568    -0.56500
O122        O  0.07245384  0.97345662  0.20648243    -0.56500
O123        O  0.07432157  0.02426244  0.30198019    -0.55700
O124        O  0.87637156  0.06715780  0.26542038    -0.56900
C125        C  0.92246770  0.99905538  0.18452891     0.75800
O126        O  0.90540853  0.96416723  0.31364645    -0.58000
C127        C  0.85258513  0.06226590  0.27179147     0.75700
C128        C  0.85399517  0.93867056  0.22570814     0.78100
Cd129      Cd  0.88785708  0.99835343  0.25285999     1.37500
O130        O  0.90906614  0.02854263  0.19428614    -0.56900
O131        O  0.86007814  0.94130033  0.26252379    -0.55700
C132        C  0.92074796  0.99098571  0.32293339     0.78100
O133        O  0.86353100  0.96336630  0.20241062    -0.58100
O134        O  0.92043591  0.97001113  0.20697841    -0.56500
O135        O  0.84476451  0.02809091  0.26790029    -0.56500
O136        O  0.92067303  0.01965367  0.29989514    -0.55700
N137        N  0.74615918  0.19648092  0.37173462    -0.35700
N138        N  0.71501242  0.25573657  0.41149138    -0.56200
N139        N  0.74618415  0.31435235  0.37288692    -0.35700
N140        N  0.77900338  0.25479299  0.33761704    -0.56200
C141        C  0.73276538  0.17586083  0.39878431     0.27900
C142        C  0.76740717  0.17535723  0.36168690     0.27900
C143        C  0.73255583  0.33623355  0.39941019     0.27900
C144        C  0.76601538  0.33585197  0.35956382     0.27900
C145        C  0.69960947  0.22499128  0.41658761     0.36500
C146        C  0.70017215  0.28735769  0.41878782     0.36500
C147        C  0.78815622  0.22322487  0.31798612     0.36500
C148        C  0.78757988  0.28561483  0.31728054     0.36500
C149        C  0.74567656  0.14138950  0.40624515    -0.21000
C150        C  0.76761091  0.14111824  0.38291682    -0.21000
C151        C  0.74382078  0.37219628  0.40289506    -0.21000
C152        C  0.76490434  0.37196107  0.37773968    -0.21000
C153        C  0.67490695  0.23710423  0.42720258    -0.22000
C154        C  0.67529787  0.27665802  0.42882366    -0.22000
C155        C  0.80248096  0.23398834  0.28491251    -0.22000
C156        C  0.80216241  0.27358471  0.28451565    -0.22000
C157        C  0.70824894  0.18621894  0.41445154    -0.17400
C158        C  0.78552706  0.18509504  0.33176066    -0.17400
C159        C  0.78420786  0.32434789  0.32986394    -0.17400
C160        C  0.70905773  0.32568962  0.41787464    -0.17400
H161        H  0.73976354  0.11865726  0.42617794     0.15600
H162        H  0.78191121  0.11809100  0.38138603     0.15600
H163        H  0.73732169  0.39634827  0.42122112     0.15600
H164        H  0.77777180  0.39584904  0.37308262     0.15600
H165        H  0.65834631  0.21937673  0.43328461     0.13800
H166        H  0.65904967  0.29536572  0.43620808     0.13800
H167        H  0.81243576  0.21530084  0.26365280     0.13800
H168        H  0.81181368  0.29147729  0.26286222     0.13800
H169        H  0.73947316  0.22122666  0.35730195     0.27100
H170        H  0.74053031  0.28792883  0.36110263     0.27100
N171        N  0.74578186  0.81225376  0.12571496    -0.35700
N172        N  0.77975568  0.75154724  0.15717599    -0.56200
N173        N  0.74371031  0.69403823  0.12917800    -0.35700
N174        N  0.71116448  0.75460085  0.09316917    -0.56200
C175        C  0.76653996  0.83340819  0.13618630     0.27900
C176        C  0.73012166  0.83499356  0.10314427     0.27900
C177        C  0.76410869  0.67106022  0.13903325     0.27900
C178        C  0.72786265  0.67287397  0.10571900     0.27900
C179        C  0.79226741  0.78250290  0.17197713     0.36500
C180        C  0.79128589  0.72005076  0.17328277     0.36500
C181        C  0.69642368  0.78657538  0.08714175     0.36500
C182        C  0.69536467  0.72410068  0.08895086     0.36500
C183        C  0.76385739  0.87018121  0.12041742    -0.21000
C184        C  0.74102700  0.87108891  0.09941052    -0.21000
C185        C  0.76097804  0.63477457  0.12215857    -0.21000
C186        C  0.73830104  0.63601296  0.10083942    -0.21000
C187        C  0.81214733  0.77051440  0.19703364    -0.22000
C188        C  0.81148921  0.73098423  0.19790986    -0.22000
C189        C  0.67122878  0.77631867  0.07867151    -0.22000
C190        C  0.67052214  0.73677977  0.08003226    -0.22000
C191        C  0.78709300  0.82134015  0.16148510    -0.17400
C192        C  0.70553835  0.82488870  0.08787872    -0.17400
C193        C  0.70337695  0.68492691  0.09092255    -0.17400
C194        C  0.78518090  0.68147497  0.16369727    -0.17400
H195        H  0.77685294  0.89414242  0.12390775     0.15600
H196        H  0.73320306  0.89578861  0.08364681     0.15600
H197        H  0.77378100  0.60997103  0.12471224     0.15600
H198        H  0.73034741  0.61224540  0.08386266     0.15600
H199        H  0.82599313  0.78831383  0.21257945     0.13800
H200        H  0.82469140  0.71241496  0.21423134     0.13800
H201        H  0.65498494  0.79533644  0.07250048     0.13800
H202        H  0.65361230  0.71940037  0.07502440     0.13800
H203        H  0.74119197  0.78548140  0.13710112     0.27100
H204        H  0.73937076  0.72102611  0.14131713     0.27100
N205        N  0.24312159  0.30583667  0.38625263    -0.35700
N206        N  0.21262121  0.24708247  0.34639898    -0.56200
N207        N  0.24333297  0.18775161  0.38714607    -0.35700
N208        N  0.27498092  0.24669456  0.42362202    -0.56200
C209        C  0.22918490  0.32760035  0.36035167     0.27900
C210        C  0.26333082  0.32725449  0.39866254     0.27900
C211        C  0.23070697  0.16649110  0.35935755     0.27900
C212        C  0.26368529  0.16621267  0.39998450     0.27900
C213        C  0.19732354  0.27835556  0.33962817     0.36500
C214        C  0.19808416  0.21573835  0.33869299     0.36500
C215        C  0.28489258  0.27808359  0.44192150     0.36500
C216        C  0.28464658  0.21559505  0.44295713     0.36500
C217        C  0.24061960  0.36327040  0.35624628    -0.21000
C218        C  0.26204267  0.36315561  0.38052626    -0.21000
C219        C  0.24316738  0.13107528  0.35451295    -0.21000
C220        C  0.26395640  0.13088472  0.38014367    -0.21000
C221        C  0.17306667  0.26680888  0.32726549    -0.22000
C222        C  0.17352974  0.22718961  0.32673609    -0.22000
C223        C  0.30101744  0.26678484  0.47303769    -0.22000
C224        C  0.30066843  0.22722547  0.47390775    -0.22000
C225        C  0.20537841  0.31716065  0.34275333    -0.17400
C226        C  0.28173783  0.31633332  0.42810092    -0.17400
C227        C  0.28142879  0.17699433  0.43022552    -0.17400
C228        C  0.20708357  0.17700603  0.34073135    -0.17400
H229        H  0.23396677  0.38723137  0.33818702     0.15600
H230        H  0.27479450  0.38727379  0.38488959     0.15600
H231        H  0.23771239  0.10763301  0.33477243     0.15600
H232        H  0.27765261  0.10730753  0.38381430     0.15600
H233        H  0.15666387  0.28497553  0.31963113     0.13800
H234        H  0.15751549  0.20898034  0.31867484     0.13800
H235        H  0.31240730  0.28491273  0.49252610     0.13800
H236        H  0.31161341  0.20909506  0.49420136     0.13800
H237        H  0.23735959  0.27981935  0.39836161     0.27100
H238        H  0.23669626  0.21350103  0.39989453     0.27100
N239        N  0.24366420  0.68913307  0.11298677    -0.35700
N240        N  0.21183693  0.74919029  0.15033392    -0.56200
N241        N  0.24176063  0.80734646  0.10923885    -0.35700
N242        N  0.27471313  0.74711514  0.07495608    -0.56200
C243        C  0.23102841  0.66894834  0.14123571     0.27900
C244        C  0.26437363  0.66759839  0.10140210     0.27900
C245        C  0.22784360  0.82961710  0.13509901     0.27900
C246        C  0.26181604  0.82863122  0.09633573     0.27900
C247        C  0.19745458  0.71800011  0.15853709     0.36500
C248        C  0.19639558  0.78038880  0.15661359     0.36500
C249        C  0.28466078  0.71535697  0.05657481     0.36500
C250        C  0.28435731  0.77783573  0.05560354     0.36500
C251        C  0.24388033  0.63421551  0.14784370    -0.21000
C252        C  0.26497339  0.63338310  0.12274070    -0.21000
C253        C  0.23891464  0.86570366  0.13816752    -0.21000
C254        C  0.26024345  0.86516302  0.11360210    -0.21000
C255        C  0.17274713  0.72939794  0.16995272    -0.22000
C256        C  0.17210092  0.76900789  0.16884539    -0.22000
C257        C  0.30051782  0.72596248  0.02516036    -0.22000
C258        C  0.30066695  0.76550991  0.02496399    -0.22000
C259        C  0.20698605  0.67964191  0.15839083    -0.17400
C260        C  0.28192681  0.67725598  0.07064847    -0.17400
C261        C  0.28070871  0.81662631  0.06788565    -0.17400
C262        C  0.20458901  0.81897991  0.15415465    -0.17400
H263        H  0.23840346  0.61158601  0.16821561     0.15600
H264        H  0.27899404  0.61004029  0.12024712     0.15600
H265        H  0.23220714  0.89008269  0.15598432     0.15600
H266        H  0.27294432  0.88920845  0.10879934     0.15600
H267        H  0.15692521  0.71114993  0.17857139     0.13800
H268        H  0.15569769  0.78733598  0.17642943     0.13800
H269        H  0.31155123  0.70721436  0.00527683     0.13800
H270        H  0.31189828  0.78301663  0.00491624     0.13800
H271        H  0.23672493  0.71383832  0.09886851     0.27100
H272        H  0.23633610  0.78063165  0.09794299     0.27100
C273        C  0.84021322  0.89504351  0.17038160    -0.20400
C274        C  0.83690124  0.90833291  0.21001307    -0.08400
C275        C  0.81706616  0.89288875  0.23354218     0.30400
C276        C  0.80086036  0.86474179  0.21743992    -0.20400
C277        C  0.80438997  0.85135828  0.17797025    -0.08400
C278        C  0.82433319  0.86642860  0.15459844     0.30500
F279        F  0.82837056  0.85348187  0.11656229    -0.18900
H280        H  0.85539699  0.90648026  0.15175300     0.18800
H281        H  0.78549156  0.85331883  0.23570405     0.18800
F282        F  0.81282773  0.90579938  0.27153520    -0.18900
C283        C  0.84579796  0.12738802  0.30273583    -0.20400
C284        C  0.83523376  0.09447058  0.28457193    -0.08400
C285        C  0.80819634  0.09214522  0.28084105     0.30400
C286        C  0.79221660  0.12185183  0.29580594    -0.20400
C287        C  0.80281806  0.15421751  0.31491480    -0.08400
C288        C  0.82982041  0.15684289  0.31803854     0.30500
F289        F  0.84073225  0.18755010  0.33662493    -0.18900
H290        H  0.86650649  0.12984694  0.30616795     0.18800
H291        H  0.77147197  0.11955916  0.29270615     0.18800
F292        F  0.79717797  0.06140833  0.26249075    -0.18900
C293        C  0.18471778  0.85105244  0.21477873    -0.20400
C294        C  0.18831202  0.84984346  0.17300564    -0.08400
C295        C  0.17684314  0.87858041  0.14928244     0.30400
C296        C  0.16180290  0.90772950  0.16697258    -0.20400
C297        C  0.15778585  0.90883268  0.20864127    -0.08400
C298        C  0.16963953  0.88039930  0.23261679     0.30500
F299        F  0.16717380  0.88141065  0.27314022    -0.18900
H300        H  0.19380078  0.82939033  0.23351721     0.18800
H301        H  0.15291490  0.92921958  0.14781253     0.18800
F302        F  0.18008582  0.87829131  0.10889968    -0.18900
C303        C  0.16571491  0.11687852  0.26998932    -0.20400
C304        C  0.15769795  0.08717529  0.29537502    -0.08400
C305        C  0.16675733  0.08650800  0.33517675     0.30400
C306        C  0.18280737  0.11564689  0.34941738    -0.20400
C307        C  0.19061929  0.14558444  0.32421268    -0.08400
C308        C  0.18232674  0.14552578  0.28402386     0.30500
F309        F  0.19022313  0.17323707  0.25842832    -0.18900
H310        H  0.15929978  0.11771952  0.23909990     0.18800
H311        H  0.18898684  0.11510749  0.38044112     0.18800
F312        F  0.15951847  0.05838283  0.36078127    -0.18900
C313        C  0.03561633  0.03571481  0.09016094    -0.20400
C314        C  0.02526443  0.00081317  0.07664174    -0.08400
C315        C  0.02925232  0.96721649  0.09902463     0.30400
C316        C  0.04343682  0.96854800  0.13458394    -0.20400
C317        C  0.05415412  0.00333901  0.14827361    -0.08400
C318        C  0.04989732  0.03713839  0.12579858     0.30500
F319        F  0.05943384  0.07150529  0.13814869    -0.18900
H320        H  0.03255463  0.06184797  0.07309910     0.18800
H321        H  0.04648020  0.94203944  0.15100184     0.18800
F322        F  0.01988687  0.93295961  0.08594454    -0.18900
C323        C  0.04887021  0.02744599  0.37704457    -0.20400
C324        C  0.05427959  0.99249958  0.35684049    -0.08400
C325        C  0.04491757  0.95784832  0.37275933     0.30400
C326        C  0.03032102  0.95852258  0.40810576    -0.20400
C327        C  0.02539768  0.99348247  0.42831352    -0.08400
C328        C  0.03480440  0.02792977  0.41268438     0.30500
F329        F  0.03017082  0.06205305  0.43180352    -0.18900
H330        H  0.05599337  0.05448009  0.36566513     0.18800
H331        H  0.02311362  0.93176334  0.42005520     0.18800
F332        F  0.04977436  0.92347355  0.35428199    -0.18900
C333        C  0.93786303  0.95761154  0.38433267    -0.20400
C334        C  0.93767370  0.98974858  0.35881491    -0.08400
C335        C  0.95348613  0.02134327  0.36842978     0.30400
C336        C  0.96839165  0.02111988  0.40322632    -0.20400
C337        C  0.96836870  0.98927203  0.42875439    -0.08400
C338        C  0.95317461  0.95729314  0.41899506     0.30500
F339        F  0.95330959  0.92578220  0.44290639    -0.18900
H340        H  0.92608121  0.93282841  0.37757068     0.18800
H341        H  0.97973266  0.04620658  0.41060128     0.18800
F342        F  0.95438978  0.05285287  0.34458488    -0.18900
C343        C  0.95970587  0.96263142  0.09349873    -0.20400
C344        C  0.96849925  0.99712808  0.07720185    -0.08400
C345        C  0.96287502  0.03224760  0.09676794     0.30400
C346        C  0.94805525  0.03276400  0.13190237    -0.20400
C347        C  0.93909445  0.99819569  0.14835907    -0.08400
C348        C  0.94537308  0.96297481  0.12901418     0.30500
F349        F  0.93695001  0.92893175  0.14357938    -0.18900
H350        H  0.96394045  0.93539207  0.07857303     0.18800
H351        H  0.94357603  0.06018557  0.14626468     0.18800
F352        F  0.97134027  0.06597870  0.08145853    -0.18900
C353        C  0.80848128  0.41206012  0.27403462    -0.20400
C354        C  0.83523717  0.40906874  0.28055382    -0.08400
C355        C  0.84508520  0.37795735  0.30290209     0.30400
C356        C  0.82837075  0.35081205  0.31906539    -0.20400
C357        C  0.80163048  0.35375948  0.31258088    -0.08400
C358        C  0.79180517  0.38428105  0.28938144     0.30500
F359        F  0.76613440  0.38701711  0.28152629    -0.18900
H360        H  0.80054547  0.43582010  0.25686696     0.18800
H361        H  0.83625385  0.32748358  0.33692258     0.18800
F362        F  0.87074860  0.37481766  0.31069458    -0.18900
C363        C  0.84192024  0.61128744  0.17016702    -0.20400
C364        C  0.83743235  0.59344057  0.20719322    -0.08400
C365        C  0.81543495  0.60437185  0.22955757     0.30400
C366        C  0.79822099  0.63243164  0.21491452    -0.20400
C367        C  0.80292333  0.65045698  0.17817611    -0.08400
C368        C  0.82498484  0.63990994  0.15597673     0.30500
F369        F  0.83013025  0.65752122  0.12071611    -0.18900
H370        H  0.85875604  0.60341601  0.15247010     0.18800
H371        H  0.78129850  0.64039009  0.23236331     0.18800
F372        F  0.81023845  0.58723101  0.26505117    -0.18900
C373        C  0.18444933  0.64949790  0.21684272    -0.20400
C374        C  0.19085789  0.64890740  0.17591011    -0.08400
C375        C  0.18159064  0.61914057  0.15130219     0.30400
C376        C  0.16645123  0.59016844  0.16748352    -0.20400
C377        C  0.15984128  0.59069582  0.20834118    -0.08400
C378        C  0.16881295  0.62083609  0.23296404     0.30500
F379        F  0.16273675  0.62239021  0.27254257    -0.18900
H380        H  0.19145699  0.67233077  0.23616511     0.18800
H381        H  0.15941442  0.56766821  0.14776228     0.18800
F382        F  0.18683233  0.61855860  0.11141218    -0.18900
C383        C  0.16434126  0.40881591  0.33485196    -0.20400
C384        C  0.15741551  0.40858107  0.29406119    -0.08400
C385        C  0.16620666  0.37788770  0.26950486     0.30400
C386        C  0.18173507  0.34839010  0.28544270    -0.20400
C387        C  0.18844745  0.34848560  0.32622995    -0.08400
C388        C  0.17950385  0.37898304  0.35090597     0.30500
F389        F  0.18541959  0.37985513  0.39056587    -0.18900
H390        H  0.15775458  0.43193902  0.35453413     0.18800
H391        H  0.18864402  0.32538819  0.26587200     0.18800
F392        F  0.16018117  0.37662456  0.22993934    -0.18900
C393        C  0.03268822  0.47134031  0.09073469    -0.20400
C394        C  0.02956770  0.50633918  0.07040934    -0.08400
C395        C  0.04236309  0.53920956  0.08441681     0.30400
C396        C  0.05751199  0.53719468  0.11905082    -0.20400
C397        C  0.06045270  0.50225247  0.13991888    -0.08400
C398        C  0.04815821  0.46911541  0.12503110     0.30500
F399        F  0.05054155  0.43479902  0.14405189    -0.18900
H400        H  0.02306916  0.44571316  0.07995493     0.18800
H401        H  0.06692787  0.56306606  0.12961478     0.18800
F402        F  0.03953844  0.57344112  0.06526596    -0.18900
C403        C  0.04077615  0.54404357  0.41261537    -0.20400
C404        C  0.02531374  0.51241458  0.42200706    -0.08400
C405        C  0.02474468  0.48076164  0.39543560     0.30400
C406        C  0.03894425  0.48118351  0.35978755    -0.20400
C407        C  0.05459462  0.51267414  0.35035089    -0.08400
C408        C  0.05535134  0.54425815  0.37721433     0.30500
F409        F  0.07053613  0.57500555  0.36980572    -0.18900
H410        H  0.04176991  0.56843462  0.43304176     0.18800
H411        H  0.03838328  0.45612157  0.34021745     0.18800
F412        F  0.01154420  0.44854866  0.40495165    -0.18900
C413        C  0.95463974  0.47281672  0.41513216    -0.20400
C414        C  0.96780279  0.50627226  0.42631991    -0.08400
C415        C  0.96463272  0.53983641  0.40339047     0.30400
C416        C  0.94866779  0.53969013  0.36946721    -0.20400
C417        C  0.93601787  0.50586800  0.35754100    -0.08400
C418        C  0.93909938  0.47238089  0.38087545     0.30500
F419        F  0.92671735  0.43936057  0.37104507    -0.18900
H420        H  0.95666765  0.44684933  0.43279538     0.18800
H421        H  0.94653639  0.56583280  0.35213569     0.18800
F422        F  0.97669878  0.57283210  0.41421255    -0.18900
C423        C  0.97508476  0.52640905  0.10576084    -0.20400
C424        C  0.97204014  0.49875059  0.07516126    -0.08400
C425        C  0.95458294  0.46856106  0.08122610     0.30400
C426        C  0.93982944  0.46708135  0.11641723    -0.20400
C427        C  0.94236472  0.49536449  0.14656841    -0.08400
C428        C  0.96077889  0.52449627  0.14130187     0.30500
F429        F  0.96471725  0.55164989  0.17012765    -0.18900
H430        H  0.98815289  0.55017733  0.10179110     0.18800
H431        H  0.92606703  0.44408237  0.11973380     0.18800
F432        F  0.95172254  0.44051766  0.05300053    -0.18900
C433        C  0.66017093  0.62370970  0.02435607    -0.20400
C434        C  0.65403104  0.59333711  0.05020475    -0.08400
C435        C  0.66361541  0.59398064  0.08972416     0.30400
C436        C  0.67870374  0.62458702  0.10299524    -0.20400
C437        C  0.68536151  0.65444323  0.07691586    -0.08400
C438        C  0.67591583  0.65381072  0.03737254     0.30500
F439        F  0.68223929  0.68195212  0.01119750    -0.18900
H440        H  0.65312081  0.62383822  0.99378973     0.18800
H441        H  0.68575066  0.62461694  0.13357982     0.18800
F442        F  0.65833929  0.56522385  0.11575092    -0.18900
C443        C  0.66814725  0.38478926  0.49096603    -0.20400
C444        C  0.65879755  0.41430121  0.46607313    -0.08400
C445        C  0.66640462  0.41481823  0.42553894     0.30400
C446        C  0.68282295  0.38603253  0.41032247    -0.20400
C447        C  0.69226874  0.35666856  0.43522190    -0.08400
C448        C  0.68494723  0.35635316  0.47584003     0.30500
F449        F  0.69390593  0.32843740  0.50074707    -0.18900
H450        H  0.66257512  0.38386689  0.52224924     0.18800
H451        H  0.68804525  0.38639393  0.37886747     0.18800
F452        F  0.65745589  0.44243893  0.40025742    -0.18900
C453        C  0.31950485  0.35892272  0.41755532    -0.20400
C454        C  0.30000247  0.34586712  0.44301111    -0.08400
C455        C  0.29831925  0.36054078  0.48234739     0.30400
C456        C  0.31659516  0.38680463  0.49635632    -0.20400
C457        C  0.33601686  0.40012539  0.47071818    -0.08400
C458        C  0.33699276  0.38645705  0.43086758     0.30500
F459        F  0.35490738  0.39954498  0.40473936    -0.18900
H460        H  0.32091107  0.34807083  0.38706611     0.18800
H461        H  0.31510089  0.39761220  0.52684337     0.18800
F462        F  0.27895238  0.34954887  0.50700139    -0.18900
C463        C  0.29002205  0.61350150  0.03604714    -0.20400
C464        C  0.29976021  0.64664071  0.05491246    -0.08400
C465        C  0.32655242  0.65002608  0.05999491     0.30400
C466        C  0.34325328  0.62068928  0.04684627    -0.20400
C467        C  0.33360063  0.58686636  0.02939875    -0.08400
C468        C  0.30675202  0.58364289  0.02355644     0.30500
F469        F  0.29661706  0.55189818  0.50621035    -0.18900
H470        H  0.26941242  0.61053696  0.03171736     0.18800
H471        H  0.36377857  0.62382452  0.05187514     0.18800
F472        F  0.33652580  0.68131266  0.07881049    -0.18900
C473        C  0.45362998  0.53092863  0.34502619    -0.20400
C474        C  0.46970825  0.49895310  0.33656412    -0.08400
C475        C  0.47157968  0.46893736  0.36446486     0.30400
C476        C  0.45735503  0.47070165  0.39996292    -0.20400
C477        C  0.44065451  0.50209681  0.40811023    -0.08400
C478        C  0.43928196  0.53269864  0.38061416     0.30500
F479        F  0.42389357  0.56402039  0.38779311    -0.18900
H480        H  0.45203396  0.55434086  0.32380343     0.18800
H481        H  0.45868350  0.44662023  0.42039287     0.18800
F482        F  0.48616747  0.43697578  0.35652168    -0.18900
C483        C  0.46645641  0.45525956  0.16161912    -0.20400
C484        C  0.46438173  0.48665835  0.18845189    -0.08400
C485        C  0.44619816  0.51605574  0.18072860     0.30400
C486        C  0.43083698  0.51456377  0.14646064    -0.20400
C487        C  0.43300693  0.48359587  0.11915249    -0.08400
C488        C  0.45086741  0.45357115  0.12725377     0.30500
F489        F  0.45345824  0.42284585  0.10200389    -0.18900
H490        H  0.48012241  0.43202217  0.16738207     0.18800
H491        H  0.41731843  0.53808811  0.14115053     0.18800
F492        F  0.44375743  0.54687363  0.20588026    -0.18900
C493        C  0.54314308  0.53160200  0.38981696    -0.20400
C494        C  0.55541870  0.49797411  0.40407082    -0.08400
C495        C  0.55328203  0.46345144  0.38168716     0.30400
C496        C  0.53949151  0.46296333  0.34572116    -0.20400
C497        C  0.52683922  0.49631111  0.33208675    -0.08400
C498        C  0.52875564  0.53075305  0.35430422     0.30500
F499        F  0.51684204  0.56353289  0.34151603    -0.18900
H500        H  0.54453839  0.55854051  0.40630059     0.18800
H501        H  0.53803867  0.43617903  0.32894984     0.18800
F502        F  0.56454880  0.43010292  0.39430871    -0.18900
C503        C  0.53887900  0.45524832  0.17445877    -0.20400
C504        C  0.52214565  0.48625281  0.18369905    -0.08400
C505        C  0.51979484  0.51695322  0.15666239     0.30400
C506        C  0.53451739  0.51707197  0.12157771    -0.20400
C507        C  0.55192896  0.48668307  0.11273219    -0.08400
C508        C  0.55349144  0.45515042  0.13910229     0.30500
F509        F  0.56939121  0.42456515  0.13120969    -0.18900
H510        H  0.54075438  0.43123903  0.19490027     0.18800
H511        H  0.53277692  0.54163127  0.10183699     0.18800
F512        F  0.50407204  0.54763556  0.16498847    -0.18900
C513        C  0.66790337  0.09565388  0.41851660    -0.20400
C514        C  0.65851966  0.09666132  0.45810925    -0.08400
C515        C  0.66597597  0.12718093  0.48357392     0.30400
C516        C  0.68226030  0.15600980  0.46941565    -0.20400
C517        C  0.69126877  0.15514852  0.42967147    -0.08400
C518        C  0.68403396  0.12454242  0.40437164     0.30500
F519        F  0.69236318  0.12283603  0.36577700    -0.18900
H520        H  0.66248854  0.07263716  0.39817713     0.18800
H521        H  0.68787466  0.17913612  0.48949307     0.18800
F522        F  0.65783639  0.12903466  0.52222629    -0.18900
C523        C  0.66527589  0.88608090  0.01637867    -0.20400
C524        C  0.65566888  0.91535036  0.04192645    -0.08400
C525        C  0.66262484  0.91467373  0.08282422     0.30400
C526        C  0.67867425  0.88515847  0.09755364    -0.20400
C527        C  0.68840040  0.85616420  0.07184475    -0.08400
C528        C  0.68171213  0.85703719  0.03100924     0.30500
F529        F  0.69138450  0.83004459  0.00519025    -0.18900
H530        H  0.66042452  0.88605661  0.98479508     0.18800
H531        H  0.68358667  0.88488136  0.12912147     0.18800
F532        F  0.65365258  0.94211499  0.10876570    -0.18900
C533        C  0.31673202  0.88616794  0.00095716    -0.20400
C534        C  0.33601100  0.89927292  0.02721036    -0.08400
C535        C  0.33699439  0.88469758  0.06649604     0.30400
C536        C  0.31905863  0.85772458  0.07912738    -0.20400
C537        C  0.29944655  0.84542500  0.05333320    -0.08400
C538        C  0.29832973  0.85979288  0.01406088     0.30500
F539        F  0.27941218  0.84840952  0.98860852    -0.18900
H540        H  0.31555199  0.89755799  0.47177310     0.18800
H541        H  0.32025565  0.84662742  0.10935957     0.18800
F542        F  0.35533724  0.89641383  0.09279906    -0.18900
C543        C  0.30714964  0.08691852  0.48186399    -0.20400
C544        C  0.33362342  0.08874341  0.47293139    -0.08400
C545        C  0.34283168  0.12025273  0.45103444     0.30400
C546        C  0.32576897  0.14887104  0.43769444    -0.20400
C547        C  0.29932722  0.14696528  0.44634936    -0.08400
C548        C  0.29012052  0.11600458  0.46900879     0.30500
F549        F  0.26468490  0.11384635  0.47839348    -0.18900
H550        H  0.29964087  0.06291132  0.49865625     0.18800
H551        H  0.33311648  0.17238461  0.41999063     0.18800
F552        F  0.36816086  0.12260763  0.44096290    -0.18900
C553        C  0.45023762  0.97430186  0.11196338    -0.20400
C554        C  0.43706329  0.00750378  0.09856487    -0.08400
C555        C  0.43890642  0.04193014  0.12113213     0.30400
C556        C  0.45367880  0.04274874  0.15633806    -0.20400
C557        C  0.46662726  0.00937645  0.16952003    -0.08400
C558        C  0.46468582  0.97508953  0.14723098     0.30500
F559        F  0.47619538  0.94207010  0.16022007    -0.18900
H560        H  0.44884404  0.94727639  0.09562842     0.18800
H561        H  0.45492124  0.06932549  0.17349855     0.18800
F562        F  0.42647438  0.07465840  0.10934998    -0.18900
C563        C  0.46742238  0.96910929  0.34175610    -0.20400
C564        C  0.46546432  0.00208637  0.31767117    -0.08400
C565        C  0.44771199  0.03139857  0.32813291     0.30400
C566        C  0.43176143  0.02738990  0.36155803    -0.20400
C567        C  0.43343249  0.99430345  0.38565254    -0.08400
C568        C  0.45167134  0.96526553  0.37565115     0.30500
F569        F  0.45418894  0.93311548  0.39835913    -0.18900
H570        H  0.48097833  0.94616166  0.33401180     0.18800
H571        H  0.41830913  0.05059027  0.36890666     0.18800
F572        F  0.44621691  0.06429653  0.30637299    -0.18900
C573        C  0.53637039  0.03173685  0.38241544    -0.20400
C574        C  0.55355847  0.00071187  0.38957621    -0.08400
C575        C  0.55486858  0.97028705  0.36129699     0.30400
C576        C  0.54001361  0.97175528  0.32621661    -0.20400
C577        C  0.52325374  0.00306739  0.31893265    -0.08400
C578        C  0.52133886  0.03294135  0.34755834     0.30500
F579        F  0.50551845  0.06385687  0.34125504    -0.18900
H580        H  0.53481881  0.05552073  0.40357627     0.18800
H581        H  0.54157532  0.94835798  0.30458214     0.18800
F582        F  0.57072343  0.93934859  0.36710960    -0.18900
C583        C  0.53367492  0.97521516  0.15379662    -0.20400
C584        C  0.52356483  0.00971257  0.16973373    -0.08400
C585        C  0.52759539  0.04442258  0.14933335     0.30400
C586        C  0.54186183  0.04449225  0.11357852    -0.20400
C587        C  0.55213776  0.00989159  0.09754968    -0.08400
C588        C  0.54769932  0.97511664  0.11798646     0.30500
F589        F  0.55764030  0.94107415  0.10420284    -0.18900
H590        H  0.53072330  0.94826464  0.16926634     0.18800
H591        H  0.54506264  0.07163510  0.09862361     0.18800
F592        F  0.51817157  0.07825298  0.16445174    -0.18900
C593        C  0.50906631  0.00903945  0.70779891     0.03200
C594        C  0.48183948  0.01012809  0.70757281     0.03200
C595        C  0.46831407  0.00866414  0.74390034    -0.17300
C596        C  0.48136728  0.00579425  0.78069563     0.03200
C597        C  0.50869795  0.00494980  0.78111876     0.03200
C598        C  0.52222933  0.00636805  0.74453502    -0.17300
H599        H  0.54316472  0.00571040  0.74466223     0.05200
H600        H  0.44737513  0.00858789  0.74343407     0.05200
O601        O  0.37527392  0.06124059  0.98586094    -0.56900
C602        C  0.42108534  0.00521893  0.56250307     0.75800
O603        O  0.35894683  0.93743311  0.47916105    -0.58000
C604        C  0.35112635  0.05654632  0.98354590     0.75700
C605        C  0.41679059  0.99185211  0.92149758     0.78100
Cd606      Cd  0.38678778  0.99389657  0.49529108     1.37500
O607        O  0.40400436  0.03028407  0.55391448    -0.56900
O608        O  0.39884811  0.01608573  0.92797373    -0.55700
C609        C  0.35419279  0.93005959  0.51559656     0.78100
O610        O  0.41995390  0.96630663  0.94803928    -0.58100
O611        O  0.42285405  0.97647342  0.53903443    -0.56500
O612        O  0.34304466  0.02275162  0.98944539    -0.56500
O613        O  0.36505084  0.95120633  0.54137459    -0.55700
O614        O  0.62831002  0.06896554  0.00427113    -0.56900
C615        C  0.56878688  0.00972314  0.56100176     0.75800
O616        O  0.58612454  0.97458606  0.93475771    -0.58000
C617        C  0.64109634  0.06605558  0.97195333     0.75700
C618        C  0.63905218  0.94620577  0.52470641     0.78100
Cd619      Cd  0.60483376  0.00686603  0.99519198     1.37500
O620        O  0.57842828  0.04035482  0.54723885    -0.56900
O621        O  0.63555912  0.97791942  0.54307196    -0.55700
C622        C  0.57076028  0.00203076  0.92594364     0.78100
O623        O  0.62703299  0.94239825  0.49180207    -0.58100
O624        O  0.57471376  0.97877745  0.54266379    -0.56500
O625        O  0.63747542  0.03577749  0.95143338    -0.56500
O626        O  0.57092561  0.03086572  0.94944627    -0.55700
C627        C  0.48122484  0.48929036  0.72446159     0.03200
C628        C  0.50852540  0.48774114  0.72244122     0.03200
C629        C  0.52297856  0.48977954  0.75805273    -0.17300
C630        C  0.51083084  0.49438167  0.79544277     0.03200
C631        C  0.48361332  0.49634832  0.79743610     0.03200
C632        C  0.46917210  0.49370264  0.76200869    -0.17300
H633        H  0.44826214  0.49436306  0.76378230     0.05200
H634        H  0.54389503  0.48879032  0.75658662     0.05200
O635        O  0.36545653  0.45149649  0.95982513    -0.56900
C636        C  0.41721211  0.48431831  0.58204093     0.75800
O637        O  0.40458417  0.52373390  0.94816830    -0.58000
C638        C  0.35444759  0.42964631  0.98445546     0.75700
C639        C  0.35164136  0.55468150  0.52044190     0.78100
Cd640      Cd  0.38749668  0.49136292  0.50865142     1.37500
O641        O  0.41768503  0.45756770  0.55598826    -0.56900
O642        O  0.37576906  0.55973848  0.51773611    -0.55700
C643        C  0.42348267  0.50066109  0.94320247     0.78100
O644        O  0.34401270  0.52034032  0.51659613    -0.58100
O645        O  0.40242581  0.51265406  0.57458485    -0.56500
O646        O  0.35946014  0.43526204  0.02123905    -0.56500
O647        O  0.42635452  0.47491413  0.96951069    -0.55700
O648        O  0.58646286  0.46477919  0.56857724    -0.56900
C649        C  0.64069245  0.44355312  0.98235577     0.75800
O650        O  0.57676816  0.53052821  0.95867059    -0.58000
C651        C  0.56959546  0.49027060  0.57739069     0.75700
C652        C  0.63785494  0.56179008  0.53504564     0.78100
Cd653      Cd  0.60427882  0.50009306  0.51049216     1.37500
O654        O  0.63731449  0.47573799  0.46480795    -0.56900
O655        O  0.62406120  0.56445330  0.50381294    -0.55700
C656        C  0.57086424  0.49906895  0.94151779     0.78100
O657        O  0.63632938  0.53057175  0.55417567    -0.58100
O658        O  0.62795136  0.43818484  0.01426751    -0.56500
O659        O  0.56858193  0.51935591  0.55473786    -0.56500
O660        O  0.57943927  0.46856323  0.95755907    -0.55700
C661        C  0.98652081  0.50248341  0.53605446     0.03200
C662        C  0.01350909  0.50832406  0.53399237     0.03200
C663        C  0.02542693  0.51310805  0.49656391    -0.17300
C664        C  0.01090768  0.51152785  0.96112377     0.03200
C665        C  0.98387049  0.50658746  0.96297738     0.03200
C666        C  0.97223601  0.50171616  0.50021503    -0.14100
H667        H  0.95147194  0.49832555  0.50146138     0.05200
H668        H  0.04619450  0.51649581  0.49518898     0.05200
O669        O  0.12922735  0.43772118  0.74518141    -0.56900
C670        C  0.07613891  0.50154965  0.67731477     0.75800
O671        O  0.08797644  0.53616923  0.80746681    -0.58000
C672        C  0.14074979  0.44032248  0.77857877     0.75700
C673        C  0.14303769  0.56025934  0.72458766     0.78100
Cd674      Cd  0.10749439  0.50214752  0.74928770     1.37500
O675        O  0.08462634  0.47039076  0.69242525    -0.56900
O676        O  0.14126011  0.52803602  0.70679696    -0.55700
C677        C  0.07123189  0.51087999  0.81471920     0.78100
O678        O  0.12915020  0.56518122  0.75555122    -0.58100
O679        O  0.08149225  0.53222547  0.69613366    -0.56500
O680        O  0.13725840  0.47156170  0.79773928    -0.56500
O681        O  0.07026750  0.48288904  0.79016438    -0.55700
O682        O  0.90869592  0.46985863  0.68740573    -0.56900
C683        C  0.85309210  0.44020063  0.76741054     0.75800
O684        O  0.90984804  0.53572424  0.80576171    -0.58000
C685        C  0.92536505  0.49577457  0.68182846     0.75700
C686        C  0.85560787  0.56273270  0.72084834     0.78100
Cd687      Cd  0.88913642  0.50082245  0.74816191     1.37500
O688        O  0.87504119  0.43258057  0.75235018    -0.56900
O689        O  0.86758668  0.54054102  0.69672678    -0.55700
C690        C  0.92041311  0.50576483  0.82030791     0.78100
O691        O  0.85950012  0.55699605  0.75787016    -0.58100
O692        O  0.84715984  0.47552024  0.77117163    -0.56500
O693        O  0.92565454  0.52281732  0.70754704    -0.56500
O694        O  0.91682648  0.47468580  0.80127562    -0.55700
C695        C  0.98371226  0.99513863  0.53931603     0.03200
C696        C  0.01080922  0.99841890  0.53897617     0.03200
C697        C  0.02403710  0.99798881  0.50234640    -0.17300
C698        C  0.01016879  0.99521667  0.96602917     0.03200
C699        C  0.98301225  0.99200491  0.96627501     0.03200
C700        C  0.97031864  0.99096610  0.50307911    -0.17300
H701        H  0.94944290  0.98895883  0.50343111     0.05200
H702        H  0.04490391  0.00019868  0.50207625     0.05200
O703        O  0.08415924  0.03186702  0.69535091    -0.56900
C704        C  0.13992603  0.05755676  0.78018242     0.75800
O705        O  0.08112550  0.96382720  0.80623132    -0.58000
C706        C  0.07042716  0.00342524  0.68518157     0.75700
C707        C  0.14072405  0.93933192  0.72632060     0.78100
Cd708      Cd  0.10492537  0.99863220  0.75324622     1.37500
O709        O  0.13789814  0.02546324  0.79758343    -0.56900
O710        O  0.13540754  0.96923053  0.70633231    -0.55700
C711        C  0.07036574  0.99396581  0.82056121     0.78100
O712        O  0.12988467  0.93679235  0.76025698    -0.58100
O713        O  0.12580728  0.06260742  0.74957254    -0.56500
O714        O  0.07200530  0.97405797  0.70737911    -0.56500
O715        O  0.07485789  0.02522145  0.80270714    -0.55700
O716        O  0.87631051  0.06738170  0.76418984    -0.56900
C717        C  0.92244272  0.99892905  0.68388020     0.75800
O718        O  0.90479598  0.96576766  0.81382107    -0.58000
C719        C  0.85252019  0.06256520  0.77054196     0.75700
C720        C  0.85420633  0.93842694  0.72531227     0.78100
Cd721      Cd  0.88779169  0.99866681  0.75209690     1.37500
O722        O  0.90894016  0.02842844  0.69324385    -0.56900
O723        O  0.86043918  0.94115308  0.76205758    -0.55700
C724        C  0.92052471  0.99227212  0.82246611     0.78100
O725        O  0.86346495  0.96326988  0.70191102    -0.58100
O726        O  0.92048068  0.97008513  0.70662648    -0.56500
O727        O  0.84464064  0.02841059  0.76676245    -0.56500
O728        O  0.92099844  0.02027766  0.79858438    -0.55700
N729        N  0.74622338  0.19655172  0.87046362    -0.35700
N730        N  0.71502288  0.25554892  0.91069357    -0.56200
N731        N  0.74652212  0.31453617  0.87338422    -0.35700
N732        N  0.77948144  0.25525371  0.83771882    -0.56200
C733        C  0.73267060  0.17551550  0.89698883     0.27900
C734        C  0.76736959  0.17537461  0.85999333     0.27900
C735        C  0.73261959  0.33624683  0.89971493     0.27900
C736        C  0.76643333  0.33617054  0.86059332     0.27900
C737        C  0.69970294  0.22471623  0.91589716     0.36500
C738        C  0.70021683  0.28710431  0.91855343     0.36500
C739        C  0.78870908  0.22394133  0.81771987     0.36500
C740        C  0.78838020  0.28634489  0.81816597     0.36500
C741        C  0.74535529  0.14068550  0.90357934    -0.21000
C742        C  0.76730295  0.14063572  0.88032524    -0.21000
C743        C  0.74379719  0.37223835  0.90361706    -0.21000
C744        C  0.76510696  0.37218991  0.87892990    -0.21000
C745        C  0.67510058  0.23671208  0.92719532    -0.22000
C746        C  0.67545339  0.27625274  0.92905934    -0.22000
C747        C  0.80343422  0.23514728  0.78524056    -0.22000
C748        C  0.80327611  0.27473906  0.78557863    -0.22000
C749        C  0.70829715  0.18592444  0.91322387    -0.17400
C750        C  0.78573021  0.18556832  0.83058205    -0.17400
C751        C  0.78486848  0.32493937  0.83114949    -0.17400
C752        C  0.70902404  0.32551085  0.91777083    -0.17400
H753        H  0.73932317  0.11759529  0.92296934     0.15600
H754        H  0.78147228  0.11745793  0.87833487     0.15600
H755        H  0.73710598  0.39628183  0.92193459     0.15600
H756        H  0.77797313  0.39614810  0.87465031     0.15600
H757        H  0.65861994  0.21890953  0.93355478     0.13800
H758        H  0.65924918  0.29484426  0.93697170     0.13800
H759        H  0.81352061  0.21674508  0.76386370     0.13800
H760        H  0.81319533  0.29289910  0.76446994     0.13800
H761        H  0.73976101  0.22176706  0.85668414     0.27100
H762        H  0.74101236  0.28815190  0.86134094     0.27100
N763        N  0.74644423  0.81205299  0.62456854    -0.35700
N764        N  0.78004047  0.75115702  0.65654765    -0.56200
N765        N  0.74440011  0.69393037  0.62711497    -0.35700
N766        N  0.71215352  0.75468428  0.59078524    -0.56200
C767        C  0.76721291  0.83302013  0.63539189     0.27900
C768        C  0.73111897  0.83485957  0.60152467     0.27900
C769        C  0.76473997  0.67089229  0.63708592     0.27900
C770        C  0.72874283  0.67296808  0.60317835     0.27900
C771        C  0.79232438  0.78201946  0.67200157     0.36500
C772        C  0.79136615  0.71956039  0.67277161     0.36500
C773        C  0.69742529  0.78671339  0.58498327     0.36500
C774        C  0.69630532  0.72424517  0.58652459     0.36500
C775        C  0.76487875  0.86972616  0.61932672    -0.21000
C776        C  0.74225018  0.87078695  0.59780365    -0.21000
C777        C  0.76179432  0.63478652  0.61969519    -0.21000
C778        C  0.73924918  0.63618464  0.59802951    -0.21000
C779        C  0.81183665  0.76988174  0.69766852    -0.22000
C780        C  0.81119205  0.73033898  0.69820393    -0.22000
C781        C  0.67220528  0.77655521  0.57657628    -0.22000
C782        C  0.67146130  0.73701263  0.57776135    -0.22000
C783        C  0.78741893  0.82086943  0.66131576    -0.17400
C784        C  0.70658082  0.82499237  0.58594699    -0.17400
C785        C  0.70426892  0.68505662  0.58844043    -0.17400
C786        C  0.78550223  0.68107054  0.66247164    -0.17400
H787        H  0.77794794  0.89357153  0.62299185     0.15600
H788        H  0.73468719  0.89548236  0.58174069     0.15600
H789        H  0.77458812  0.60997222  0.62224649     0.15600
H790        H  0.73137916  0.61255995  0.58073536     0.15600
H791        H  0.82547629  0.78758369  0.71377283     0.13800
H792        H  0.82419028  0.71166419  0.71478180     0.13800
H793        H  0.65596213  0.79563965  0.57062107     0.13800
H794        H  0.65451917  0.71969298  0.57279795     0.13800
H795        H  0.74157419  0.78542837  0.63607144     0.27100
H796        H  0.73988578  0.72073916  0.63955101     0.27100
N797        N  0.24328228  0.30585396  0.88617317    -0.35700
N798        N  0.21273947  0.24724170  0.84619860    -0.56200
N799        N  0.24349178  0.18783802  0.88665742    -0.35700
N800        N  0.27513864  0.24664099  0.92333453    -0.56200
C801        C  0.22930356  0.32771200  0.86041026     0.27900
C802        C  0.26347519  0.32725522  0.89868185     0.27900
C803        C  0.23086711  0.16668126  0.85879340     0.27900
C804        C  0.26388856  0.16630048  0.89929983     0.27900
C805        C  0.19741581  0.27852447  0.83965399     0.36500
C806        C  0.19816927  0.21592639  0.83854984     0.36500
C807        C  0.28498999  0.27796060  0.94183161     0.36500
C808        C  0.28474680  0.21547585  0.94260763     0.36500
C809        C  0.24069509  0.36343111  0.85648443    -0.21000
C810        C  0.26213637  0.36324481  0.88073627    -0.21000
C811        C  0.24337523  0.13133663  0.85368535    -0.21000
C812        C  0.26420422  0.13108707  0.87923532    -0.21000
C813        C  0.17311099  0.26701397  0.82748126    -0.22000
C814        C  0.17356822  0.22739786  0.82685475    -0.22000
C815        C  0.30101690  0.26654902  0.97302796    -0.22000
C816        C  0.30066233  0.22698563  0.97373913    -0.22000
C817        C  0.20547476  0.31731317  0.84285307    -0.17400
C818        C  0.28188702  0.31624016  0.92808695    -0.17400
C819        C  0.28157884  0.17694369  0.92965035    -0.17400
C820        C  0.20719131  0.17721060  0.84037493    -0.17400
H821        H  0.23398695  0.38747871  0.83859636     0.15600
H822        H  0.27484700  0.38738802  0.88524739     0.15600
H823        H  0.23791757  0.10797697  0.83384001     0.15600
H824        H  0.27794008  0.10753559  0.88273721     0.15600
H825        H  0.15667921  0.28520369  0.82005231     0.13800
H826        H  0.15752538  0.20920257  0.81889847     0.13800
H827        H  0.31234947  0.28459666  0.99267633     0.13800
H828        H  0.31154077  0.20877873  0.99404400     0.13800
H829        H  0.23754448  0.27977501  0.89816220     0.27100
H830        H  0.23681139  0.21346799  0.89961731     0.27100
N831        N  0.24375073  0.68912018  0.61332210    -0.35700
N832        N  0.21221257  0.74907884  0.65144513    -0.56200
N833        N  0.24229492  0.80736798  0.61080606    -0.35700
N834        N  0.27490401  0.74727441  0.57565595    -0.56200
C835        C  0.23113285  0.66881771  0.64150227     0.27900
C836        C  0.26446726  0.66764813  0.60164300     0.27900
C837        C  0.22850166  0.82950473  0.63695036     0.27900
C838        C  0.26235550  0.82865134  0.59789589     0.27900
C839        C  0.19770079  0.71791199  0.65921793     0.36500
C840        C  0.19686687  0.78034318  0.65798459     0.36500
C841        C  0.28469802  0.71557910  0.55696400     0.36500
C842        C  0.28451810  0.77807520  0.55639601     0.36500
C843        C  0.24400132  0.63407439  0.64797199    -0.21000
C844        C  0.26509348  0.63336101  0.62286190    -0.21000
C845        C  0.23968643  0.86549266  0.64026842    -0.21000
C846        C  0.26094141  0.86503638  0.61552541    -0.21000
C847        C  0.17300617  0.72939000  0.67061095    -0.22000
C848        C  0.17250162  0.76902081  0.66994016    -0.22000
C849        C  0.30041927  0.72629706  0.52543158    -0.22000
C850        C  0.30063716  0.76585096  0.52546868    -0.22000
C851        C  0.20711924  0.67948457  0.65877129    -0.17400
C852        C  0.28198697  0.67742002  0.57088180    -0.17400
C853        C  0.28105612  0.81680364  0.56905054    -0.17400
C854        C  0.20518179  0.81891098  0.65586864    -0.17400
H855        H  0.23855016  0.61137885  0.66828108     0.15600
H856        H  0.27913285  0.61005065  0.62028753     0.15600
H857        H  0.23306794  0.88977481  0.65830629     0.15600
H858        H  0.27367145  0.88906101  0.61079759     0.15600
H859        H  0.15709815  0.71117437  0.67891944     0.13800
H860        H  0.15613641  0.78739488  0.67760093     0.13800
H861        H  0.31132998  0.70760807  0.50532708     0.13800
H862        H  0.31181577  0.78341774  0.50540857     0.13800
H863        H  0.23680835  0.71389865  0.59933516     0.27100
H864        H  0.23673511  0.78081153  0.59927105     0.27100
C865        C  0.84058487  0.89442667  0.67023046    -0.20400
C866        C  0.83723812  0.90784506  0.70980402    -0.08400
C867        C  0.81744185  0.89237772  0.73340234     0.30400
C868        C  0.80124621  0.86417493  0.71736574    -0.20400
C869        C  0.80477643  0.85074182  0.67791090    -0.08400
C870        C  0.82474025  0.86573550  0.65453634     0.30500
F871        F  0.82877336  0.85271380  0.61652448    -0.18900
H872        H  0.85574639  0.90586617  0.65156028     0.18800
H873        H  0.78586840  0.85279383  0.73564116     0.18800
F874        F  0.81320350  0.90536888  0.77136645    -0.18900
C875        C  0.84588254  0.12740179  0.80201918    -0.20400
C876        C  0.83525699  0.09486205  0.78322548    -0.08400
C877        C  0.80825414  0.09301875  0.77874983     0.30400
C878        C  0.79234525  0.12285295  0.79360642    -0.20400
C879        C  0.80298723  0.15480977  0.81341727    -0.08400
C880        C  0.82997551  0.15695870  0.81724776     0.30500
F881        F  0.84093564  0.18725366  0.83649221    -0.18900
H882        H  0.86657236  0.12945625  0.80602728     0.18800
H883        H  0.77161623  0.12092763  0.78998025     0.18800
F884        F  0.79721378  0.06263818  0.75979000    -0.18900
C885        C  0.18494173  0.85108800  0.71623695    -0.20400
C886        C  0.18883248  0.84983729  0.67452211    -0.08400
C887        C  0.17751468  0.87855521  0.65060412     0.30400
C888        C  0.16230667  0.90767683  0.66800929    -0.20400
C889        C  0.15797976  0.90882553  0.70960698    -0.08400
C890        C  0.16972071  0.88045046  0.73380340     0.30500
F891        F  0.16699190  0.88151424  0.77428576    -0.18900
H892        H  0.19389754  0.82944711  0.73514265     0.18800
H893        H  0.15354604  0.92912585  0.64866547     0.18800
F894        F  0.18104934  0.87825460  0.61028065    -0.18900
C895        C  0.16569170  0.11724916  0.76971897    -0.20400
C896        C  0.15775786  0.08746620  0.79507810    -0.08400
C897        C  0.16694235  0.08669695  0.83481492     0.30400
C898        C  0.18300115  0.11581630  0.84903297    -0.20400
C899        C  0.19070884  0.14583433  0.82387043    -0.08400
C900        C  0.18231536  0.14588636  0.78373893     0.30500
F901        F  0.19013409  0.17369019  0.75819229    -0.18900
H902        H  0.15919143  0.11818073  0.73887635     0.18800
H903        H  0.18927985  0.11518680  0.88000692     0.18800
F904        F  0.15986752  0.05844180  0.86037670    -0.18900
C905        C  0.03590480  0.03527728  0.59001359    -0.20400
C906        C  0.02568594  0.00023528  0.57664147    -0.08400
C907        C  0.02953933  0.96683674  0.59938437     0.30400
C908        C  0.04348167  0.96849760  0.63514336    -0.20400
C909        C  0.05408510  0.00342094  0.64867062    -0.08400
C910        C  0.04992365  0.03703608  0.62587666     0.30500
F911        F  0.05926772  0.07154499  0.63816390    -0.18900
H912        H  0.03289259  0.06127170  0.57270811     0.18800
H913        H  0.04645825  0.94212729  0.65182497     0.18800
F914        F  0.02026446  0.93245984  0.58648496    -0.18900
C915        C  0.05018326  0.02810211  0.87859628    -0.20400
C916        C  0.05413465  0.99352766  0.85699467    -0.08400
C917        C  0.04319704  0.95931641  0.87138538     0.30400
C918        C  0.02850309  0.96006201  0.90665068    -0.20400
C919        C  0.02501917  0.99461760  0.92828150    -0.08400
C920        C  0.03598752  0.02861379  0.91412183     0.30500
F921        F  0.03272444  0.06236658  0.93454323    -0.18900
H922        H  0.05853052  0.05476729  0.86837211     0.18800
H923        H  0.02008677  0.93364135  0.91741783     0.18800
F924        F  0.04653724  0.92534348  0.85139961    -0.18900
C925        C  0.93706720  0.95951382  0.88448710    -0.20400
C926        C  0.93729356  0.99130486  0.85853995    -0.08400
C927        C  0.95341676  0.02263786  0.86784277     0.30400
C928        C  0.96833413  0.02239253  0.90267249    -0.20400
C929        C  0.96788420  0.99085093  0.92862664    -0.08400
C930        C  0.95231058  0.95919912  0.91919649     0.30500
F931        F  0.95206025  0.92792536  0.94342175    -0.18900
H932        H  0.92503999  0.93493640  0.87798121     0.18800
H933        H  0.98003572  0.04719685  0.90972849     0.18800
F934        F  0.95461622  0.05388382  0.84366200    -0.18900
C935        C  0.95903746  0.96205369  0.59253694    -0.20400
C936        C  0.96894030  0.99624679  0.57714542    -0.08400
C937        C  0.96418946  0.03130769  0.59736330     0.30400
C938        C  0.94916042  0.03208792  0.63227783    -0.20400
C939        C  0.93913726  0.99781256  0.64784186    -0.08400
C940        C  0.94448240  0.96263544  0.62781698     0.30500
F941        F  0.93486728  0.92895402  0.64144089    -0.18900
H942        H  0.96255588  0.93488118  0.57706065     0.18800
H943        H  0.94536618  0.05945832  0.64719060     0.18800
F944        F  0.97364602  0.06475984  0.58283368    -0.18900
C945        C  0.80901872  0.41232738  0.77470321    -0.20400
C946        C  0.83574262  0.40973177  0.78164874    -0.08400
C947        C  0.84559473  0.37920526  0.80483379     0.30400
C948        C  0.82891654  0.35214597  0.82125170    -0.20400
C949        C  0.80222109  0.35460442  0.81419143    -0.08400
C950        C  0.79238891  0.38462437  0.79031554     0.30500
F951        F  0.76677215  0.38684085  0.78191375    -0.18900
H952        H  0.80108405  0.43565793  0.75691716     0.18800
H953        H  0.83679637  0.32918325  0.83960995     0.18800
F954        F  0.87122234  0.37651588  0.81305196    -0.18900
C955        C  0.84242900  0.61131022  0.66945644    -0.20400
C956        C  0.83775834  0.59324383  0.70629835    -0.08400
C957        C  0.81553330  0.60377006  0.72830725     0.30400
C958        C  0.79828666  0.63171040  0.71351312    -0.20400
C959        C  0.80318381  0.64999928  0.67697850    -0.08400
C960        C  0.82545872  0.63981470  0.65512374     0.30500
F961        F  0.83079820  0.65771161  0.62009424    -0.18900
H962        H  0.85944451  0.60372879  0.65204701     0.18800
H963        H  0.78120256  0.63939864  0.73070376     0.18800
F964        F  0.81015897  0.58633659  0.76357972    -0.18900
C965        C  0.18450491  0.64946127  0.71722382    -0.20400
C966        C  0.19098260  0.64874216  0.67631252    -0.08400
C967        C  0.18177849  0.61884632  0.65179782     0.30400
C968        C  0.16659047  0.58995224  0.66803746    -0.20400
C969        C  0.15989536  0.59064963  0.70886169    -0.08400
C970        C  0.16884377  0.62085928  0.73340113     0.30500
F971        F  0.16273330  0.62252526  0.77296328    -0.18900
H972        H  0.19148324  0.67235387  0.73649529     0.18800
H973        H  0.15958637  0.56737326  0.64838417     0.18800
F974        F  0.18712266  0.61805059  0.61194291    -0.18900
C975        C  0.16417712  0.40876863  0.83553411    -0.20400
C976        C  0.15722944  0.40869238  0.79474526    -0.08400
C977        C  0.16605330  0.37813166  0.77004041     0.30400
C978        C  0.18170746  0.34868658  0.78577625    -0.20400
C979        C  0.18847910  0.34865138  0.82653325    -0.08400
C980        C  0.17943549  0.37893082  0.85140597     0.30500
F981        F  0.18532130  0.37954307  0.89108196    -0.18900
H982        H  0.15753102  0.43175623  0.85533927     0.18800
H983        H  0.18864783  0.32580644  0.76607792     0.18800
F984        F  0.15993296  0.37695175  0.73050891    -0.18900
C985        C  0.03322080  0.47156276  0.59040613    -0.20400
C986        C  0.03005134  0.50654818  0.57007633    -0.08400
C987        C  0.04280330  0.53945694  0.58411175     0.30400
C988        C  0.05787264  0.53750809  0.61885988    -0.20400
C989        C  0.06080229  0.50258331  0.63978143    -0.08400
C990        C  0.04863123  0.46939377  0.62476893     0.30500
F991        F  0.05107012  0.43506032  0.64373880    -0.18900
H992        H  0.02366703  0.44589369  0.57959060     0.18800
H993        H  0.06722040  0.56341385  0.62948262     0.18800
F994        F  0.04000102  0.57365853  0.56489516    -0.18900
C995        C  0.04066293  0.54411013  0.91312045    -0.20400
C996        C  0.02508985  0.51256423  0.92237638    -0.08400
C997        C  0.02447325  0.48097763  0.89572243     0.30400
C998        C  0.03868560  0.48142342  0.86008523    -0.20400
C999        C  0.05441468  0.51285547  0.85075404    -0.08400
C1000       C  0.05527254  0.54432795  0.87775049     0.30500
F1001       F  0.07060370  0.57495164  0.87051584    -0.18900
H1002       H  0.04172087  0.56842699  0.93363271     0.18800
H1003       H  0.03806863  0.45642197  0.84043708     0.18800
F1004       F  0.01121166  0.44879712  0.90514744    -0.18900
C1005       C  0.95448999  0.47334500  0.91509080    -0.20400
C1006       C  0.96757384  0.50679522  0.92649261    -0.08400
C1007       C  0.96443448  0.54044823  0.90369459     0.30400
C1008       C  0.94864278  0.54034700  0.86957796    -0.20400
C1009       C  0.93612293  0.50649876  0.85740281    -0.08400
C1010       C  0.93909578  0.47297518  0.88069592     0.30500
F1011       F  0.92671961  0.43999349  0.87070169    -0.18900
H1012       H  0.95646943  0.44733215  0.93269445     0.18800
H1013       H  0.94654469  0.56652908  0.85230109     0.18800
F1014       F  0.97635927  0.57346810  0.91483136    -0.18900
C1015       C  0.97550522  0.52652351  0.60546608    -0.20400
C1016       C  0.97255681  0.49868811  0.57501737    -0.08400
C1017       C  0.95523597  0.46836175  0.58126660     0.30400
C1018       C  0.94050340  0.46692090  0.61648090    -0.20400
C1019       C  0.94291565  0.49539709  0.64646349    -0.08400
C1020       C  0.96120620  0.52467495  0.64102035     0.30500
F1021       F  0.96499747  0.55206635  0.66965278    -0.18900
H1022       H  0.98847420  0.55039069  0.60134742     0.18800
H1023       H  0.92684028  0.44380931  0.61993443     0.18800
F1024       F  0.95247644  0.44016159  0.55318369    -0.18900
C1025       C  0.66070570  0.62369420  0.52265509    -0.20400
C1026       C  0.65459046  0.59352659  0.54877747    -0.08400
C1027       C  0.66431837  0.59435366  0.58820248     0.30400
C1028       C  0.67955816  0.62492225  0.60110249    -0.20400
C1029       C  0.68616685  0.65458856  0.57476045    -0.08400
C1030       C  0.67655833  0.65379489  0.53532423     0.30500
F1031       F  0.68281850  0.68177779  0.50892944    -0.18900
H1032       H  0.65353544  0.62367265  0.49215550     0.18800
H1033       H  0.68672515  0.62510165  0.63162008     0.18800
F1034       F  0.65900990  0.56584117  0.61450413    -0.18900
C1035       C  0.66812784  0.38458368  0.99094948    -0.20400
C1036       C  0.65867237  0.41404067  0.96607567    -0.08400
C1037       C  0.66614089  0.41446674  0.92547082     0.30400
C1038       C  0.68256962  0.38569389  0.91020217    -0.20400
C1039       C  0.69212652  0.35639738  0.93510194    -0.08400
C1040       C  0.68490218  0.35613961  0.97575789     0.30500
F1041       F  0.69393194  0.32825991  0.00064444    -0.18900
H1042       H  0.66265235  0.38370176  0.02227491     0.18800
H1043       H  0.68772597  0.38602239  0.87872027     0.18800
F1044       F  0.65705557  0.44199155  0.90018783    -0.18900
C1045       C  0.31962686  0.35884470  0.91741723    -0.20400
C1046       C  0.30022074  0.34568049  0.94299004    -0.08400
C1047       C  0.29868745  0.36019222  0.98240164     0.30400
C1048       C  0.31698803  0.38644843  0.99633461    -0.20400
C1049       C  0.33629368  0.39992015  0.97057117    -0.08400
C1050       C  0.33714280  0.38636680  0.93066864     0.30500
F1051       F  0.35493454  0.39958397  0.90441131    -0.18900
H1052       H  0.32092385  0.34810699  0.88687413     0.18800
H1053       H  0.31559516  0.39713865  0.02687571     0.18800
F1054       F  0.27944085  0.34905470  0.00720863    -0.18900
C1055       C  0.29003465  0.61371509  0.53615234    -0.20400
C1056       C  0.29980212  0.64685466  0.55498109    -0.08400
C1057       C  0.32660332  0.65022729  0.55997474     0.30400
C1058       C  0.34327656  0.62083705  0.54686563    -0.20400
C1059       C  0.33359251  0.58700532  0.52948153    -0.08400
C1060       C  0.30673880  0.58382744  0.52365505     0.30500
F1061       F  0.29666293  0.55170245  0.00608817    -0.18900
H1062       H  0.26941930  0.61076272  0.53187836     0.18800
H1063       H  0.36380657  0.62394621  0.55186702     0.18800
F1064       F  0.33661504  0.68153448  0.57870021    -0.18900
C1065       C  0.45337743  0.53085830  0.84449183    -0.20400
C1066       C  0.46968624  0.49909759  0.83620348    -0.08400
C1067       C  0.47166661  0.46916011  0.86417888     0.30400
C1068       C  0.45746043  0.47089883  0.89969584    -0.20400
C1069       C  0.44060161  0.50212714  0.90773365    -0.08400
C1070       C  0.43898138  0.53254229  0.88003674     0.30500
F1071       F  0.42329918  0.56359032  0.88697295    -0.18900
H1072       H  0.45163659  0.55416347  0.82316590     0.18800
H1073       H  0.45892367  0.44691148  0.92022563     0.18800
F1074       F  0.48634152  0.43727773  0.85628004    -0.18900
C1075       C  0.46699609  0.45571006  0.66106787    -0.20400
C1076       C  0.46474268  0.48696454  0.68806174    -0.08400
C1077       C  0.44639458  0.51616884  0.68046779     0.30400
C1078       C  0.43093032  0.51451147  0.64633108    -0.20400
C1079       C  0.43322414  0.48364824  0.61892362    -0.08400
C1080       C  0.45137857  0.45393850  0.62673357     0.30500
F1081       F  0.45422269  0.42344220  0.60124169    -0.18900
H1082       H  0.48082011  0.43264571  0.66667918     0.18800
H1083       H  0.41724486  0.53785617  0.64118546     0.18800
F1084       F  0.44387768  0.54696794  0.70562704    -0.18900
C1085       C  0.54288197  0.53144919  0.89022223    -0.20400
C1086       C  0.55530879  0.49785648  0.90425927    -0.08400
C1087       C  0.55337561  0.46346943  0.88160011     0.30400
C1088       C  0.53966557  0.46309607  0.84555104    -0.20400
C1089       C  0.52686484  0.49640398  0.83211696    -0.08400
C1090       C  0.52855441  0.53069866  0.85464291     0.30500
F1091       F  0.51648250  0.56343775  0.84208825    -0.18900
H1092       H  0.54410647  0.55827936  0.90693675     0.18800
H1093       H  0.53838409  0.43641619  0.82855943     0.18800
F1094       F  0.56479050  0.43015631  0.89401272    -0.18900
C1095       C  0.53941370  0.45577854  0.67450276    -0.20400
C1096       C  0.52254655  0.48664659  0.68365621    -0.08400
C1097       C  0.52013039  0.51731824  0.65659412     0.30400
C1098       C  0.53488835  0.51752580  0.62155001    -0.20400
C1099       C  0.55239770  0.48725122  0.61276197    -0.08400
C1100       C  0.55406242  0.45576762  0.63918429     0.30500
F1101       F  0.57009718  0.42531753  0.63138125    -0.18900
H1102       H  0.54135260  0.43179883  0.69496902     0.18800
H1103       H  0.53306970  0.54204246  0.60176711     0.18800
F1104       F  0.50428593  0.54788016  0.66484159    -0.18900
C1105       C  0.66772399  0.09556993  0.91810717    -0.20400
C1106       C  0.65887931  0.09643671  0.95799990    -0.08400
C1107       C  0.66684817  0.12668951  0.98340999     0.30400
C1108       C  0.68302536  0.15548267  0.96886626    -0.20400
C1109       C  0.69143692  0.15483572  0.92879903    -0.08400
C1110       C  0.68376508  0.12440504  0.90358805     0.30500
F1111       F  0.69159614  0.12279498  0.86474199    -0.18900
H1112       H  0.66192947  0.07272600  0.89781960     0.18800
H1113       H  0.68902428  0.17842077  0.98889749     0.18800
F1114       F  0.65934406  0.12827734  0.02238025    -0.18900
C1115       C  0.66582769  0.88616902  0.51503141    -0.20400
C1116       C  0.65632794  0.91540282  0.54072343    -0.08400
C1117       C  0.66368198  0.91486521  0.58146040     0.30400
C1118       C  0.67995377  0.88547664  0.59590570    -0.20400
C1119       C  0.68949137  0.85643407  0.57008081    -0.08400
C1120       C  0.68246610  0.85723765  0.52937557     0.30500
F1121       F  0.69194267  0.83021700  0.50341714    -0.18900
H1122       H  0.66069152  0.88604021  0.48355705     0.18800
H1123       H  0.68511284  0.88526395  0.62737937     0.18800
F1124       F  0.65485101  0.94227646  0.60754924    -0.18900
C1125       C  0.31695523  0.88641379  0.50195308    -0.20400
C1126       C  0.33638119  0.89936279  0.52802769    -0.08400
C1127       C  0.33750596  0.88465739  0.56725516     0.30400
C1128       C  0.31954500  0.85775732  0.58001598    -0.20400
C1129       C  0.29977602  0.84563093  0.55441270    -0.08400
C1130       C  0.29854006  0.86010786  0.51518236     0.30500
F1131       F  0.27949637  0.84889442  0.48987683    -0.18900
H1132       H  0.31543664  0.89723222  0.97073431     0.18800
H1133       H  0.32086012  0.84656088  0.61019641     0.18800
F1134       F  0.35601236  0.89617349  0.59337535    -0.18900
C1135       C  0.30696455  0.08656742  0.98099364    -0.20400
C1136       C  0.33350062  0.08851567  0.97257765    -0.08400
C1137       C  0.34285596  0.12016259  0.95105861     0.30400
C1138       C  0.32587961  0.14883092  0.93760233    -0.20400
C1139       C  0.29938191  0.14682864  0.94578857    -0.08400
C1140       C  0.29002034  0.11570612  0.96803860     0.30500
F1141       F  0.26451479  0.11345379  0.97692505    -0.18900
H1142       H  0.29934524  0.06243148  0.99746152     0.18800
H1143       H  0.33334171  0.17246691  0.92019471     0.18800
F1144       F  0.36825704  0.12260642  0.94146186    -0.18900
C1145       C  0.45097985  0.97496611  0.61175138    -0.20400
C1146       C  0.43753669  0.00805309  0.59867387    -0.08400
C1147       C  0.43911562  0.04232177  0.62155933     0.30400
C1148       C  0.45386597  0.04308142  0.65678686    -0.20400
C1149       C  0.46706616  0.00981151  0.66966524    -0.08400
C1150       C  0.46540650  0.97568830  0.64703671     0.30500
F1151       F  0.47713889  0.94273287  0.65973728    -0.18900
H1152       H  0.44979394  0.94805101  0.59517174     0.18800
H1153       H  0.45489566  0.06953076  0.67420219     0.18800
F1154       F  0.42642472  0.07493945  0.61009507    -0.18900
C1155       C  0.46752252  0.96940574  0.84167516    -0.20400
C1156       C  0.46576178  0.00255149  0.81781121    -0.08400
C1157       C  0.44806915  0.03192867  0.82834761     0.30400
C1158       C  0.43197960  0.02780976  0.86161254    -0.20400
C1159       C  0.43345871  0.99454765  0.88547329    -0.08400
C1160       C  0.45163756  0.96545069  0.87540453     0.30500
F1161       F  0.45393414  0.93309949  0.89785336    -0.18900
H1162       H  0.48100976  0.94639107  0.83385613     0.18800
H1163       H  0.41857702  0.05105349  0.86903441     0.18800
F1164       F  0.44675004  0.06496987  0.80680065    -0.18900
C1165       C  0.53677560  0.03236880  0.88246671    -0.20400
C1166       C  0.55382558  0.00123605  0.88988587    -0.08400
C1167       C  0.55505588  0.97063520  0.86180496     0.30400
C1168       C  0.54022509  0.97199065  0.82669515    -0.20400
C1169       C  0.52357223  0.00337477  0.81918075    -0.08400
C1170       C  0.52176836  0.03346435  0.84757771     0.30500
F1171       F  0.50608376  0.06447888  0.84100899    -0.18900
H1172       H  0.53530573  0.05630362  0.90345509     0.18800
H1173       H  0.54172235  0.94845072  0.80521943     0.18800
F1174       F  0.57081278  0.93962697  0.86784114    -0.18900
C1175       C  0.53460179  0.97522779  0.65451882    -0.20400
C1176       C  0.52400836  0.00964601  0.66990280    -0.08400
C1177       C  0.52747585  0.04413940  0.64883491     0.30400
C1178       C  0.54163370  0.04407597  0.61296847    -0.20400
C1179       C  0.55235694  0.00954855  0.59747326    -0.08400
C1180       C  0.54851391  0.97499110  0.61859240     0.30500
F1181       F  0.55893651  0.94106770  0.60534988    -0.18900
H1182       H  0.53207653  0.94843767  0.67047500     0.18800
H1183       H  0.54438597  0.07106384  0.59749160     0.18800
F1184       F  0.51761044  0.07791413  0.66341158    -0.18900
loop_ 
_geom_bond_atom_site_label_1 
_geom_bond_atom_site_label_2 
_geom_bond_distance 
_geom_bond_site_symmetry_2 
_ccdc_geom_bond_type 
C1            C2   1.410       .  A
C1            C6   1.405       .  A
C1          C584   1.481       .  S
C2            C3   1.401       .  A
C2          C557   1.478       .  S
C3            C4   1.405       .  A
C3            H8   1.085       .  S
C4            C5   1.415       .  A
C4          C564   1.483       .  S
C5            C6   1.408       .  A
C5          C577   1.486       .  S
C6            H7   1.084       .  S
O9           C12   1.266       .  A
O9         Cd606   2.429   1_545  S
C10         C554   1.481       .  S
C10          O19   1.264   1_545  A
C10          O15   1.266       .  A
O11          C17   1.268   1_556  A
O11         Cd14   2.501       .  S
C12         C544   1.475       .  S
C12          O20   1.266       .  A
C13         C567   1.483       .  S
C13          O18   1.266       .  A
C13          O16   1.261   1_565  A
Cd14         O21   2.426   1_556  S
Cd14         O19   2.443   1_556  S
Cd14         O15   2.490   1_566  S
Cd14        O601   2.427   1_565  S
Cd14        O612   2.463   1_565  S
Cd14        O610   2.502       .  S
Cd14        O608   2.455   1_565  S
O16        Cd606   2.452   1_545  S
C17         C534   1.479       .  S
C17          O21   1.263       .  A
O18        Cd606   2.503       .  S
O20        Cd606   2.464   1_545  S
O22          C25   1.267       .  A
O22         Cd27   2.501       .  S
C23         C587   1.484       .  S
C23          O32   1.264   1_545  A
C23          O28   1.269       .  A
O24          C30   1.268   1_565  A
O24         Cd27   2.502   1_565  S
C25         C514   1.486       .  S
C25          O33   1.264       .  A
C26         C524   1.485       .  S
C26          O31   1.269   1_554  A
C26          O29   1.265       .  A
Cd27         O34   2.467       .  S
Cd27         O33   2.463       .  S
Cd27        O624   2.442   1_545  S
Cd27        O620   2.496       .  S
Cd27        O623   2.490   1_545  S
Cd27        O621   2.472   1_545  S
O28        Cd619   2.496   1_554  S
O29        Cd619   2.470   1_564  S
C30         C574   1.489       .  S
C30          O34   1.265       .  A
O31        Cd619   2.488   1_565  S
O32        Cd619   2.440   1_564  S
C35          C36   1.416       .  A
C35          C40   1.405       .  A
C35         C484   1.486       .  S
C36          C37   1.406       .  A
C36         C504   1.483       .  S
C37          C38   1.403       .  A
C37          H42   1.084       .  S
C38          C39   1.412       .  A
C38         C497   1.480       .  S
C39          C40   1.402       .  A
C39         C474   1.482       .  S
C40          H41   1.084       .  S
O43          C46   1.263       .  A
O43        Cd640   2.422       .  S
C44         C487   1.484       .  S
C44          O53   1.263       .  A
C44          O49   1.266       .  A
O45          C51   1.265       .  A
O45        Cd640   2.480       .  S
C46         C457   1.476       .  S
C46          O54   1.268       .  A
C47         C467   1.478       .  S
C47          O52   1.265       .  A
C47          O50   1.267       .  A
Cd48         O53   2.444       .  S
Cd48         O49   2.508       .  S
Cd48         O52   2.467       .  S
Cd48         O50   2.455       .  S
Cd48        O635   2.424   1_554  S
Cd48        O637   2.478   1_554  S
Cd48        O647   2.448   1_554  S
Cd48        O646   2.486       .  S
C51         C477   1.480       .  S
C51          O55   1.264       .  A
O54        Cd640   2.487       .  S
O55        Cd640   2.446       .  S
O56          C59   1.267       .  A
O56         Cd61   2.485       .  S
C57         C444   1.473       .  S
C57          O66   1.268       .  A
C57         O654   1.265       .  A
O58          C64   1.268       .  A
O58        Cd653   2.481       .  S
C59         C507   1.483       .  S
C59          O67   1.265       .  A
C60         C434   1.480       .  S
C60          O65   1.264       .  A
C60          O63   1.267       .  A
Cd61         O67   2.447       .  S
Cd61         O62   2.431   1_554  S
Cd61         O65   2.455       .  S
Cd61         O63   2.482       .  S
Cd61        O650   2.481   1_554  S
Cd61        O660   2.442   1_554  S
Cd61        O658   2.454       .  S
O62         C649   1.265       .  A
C64         C494   1.482       .  S
C64          O68   1.264       .  A
O66        Cd653   2.453       .  S
O68        Cd653   2.440       .  S
C69          C70   1.417   1_655  A
C69          C74   1.406       .  A
C69         C424   1.495       .  S
C70          C71   1.404   1_554  A
C70         C394   1.478       .  S
C71         C664   1.403       .  A
C71          H76   1.085       .  S
C72          C73   1.415   1_455  A
C72         C663   1.404       .  A
C72         C404   1.487       .  S
C73         C666   1.405       .  A
C73         C414   1.482       .  S
C74         C665   1.405   1_554  A
C74          H75   1.084       .  S
O77          C80   1.267       .  A
O77         Cd82   2.491       .  S
C78         C397   1.482       .  S
C78          O87   1.264       .  A
C78          O83   1.268       .  A
O79          C85   1.266       .  A
O79         Cd82   2.471       .  S
C80         C384   1.484       .  S
C80          O88   1.264       .  A
C81         C377   1.477       .  S
C81          O86   1.267       .  A
C81          O84   1.265       .  A
Cd82         O89   2.463       .  S
Cd82         O88   2.465       .  S
Cd82         O87   2.453       .  S
Cd82         O83   2.493       .  S
Cd82         O86   2.477       .  S
Cd82         O84   2.437       .  S
C85         C407   1.484       .  S
C85          O89   1.266       .  A
O90          C93   1.269       .  A
O90         Cd95   2.493       .  S
C91         C354   1.478       .  S
C91         O100   1.263       .  A
C91          O96   1.266       .  A
O92          C98   1.267       .  A
O92         Cd95   2.512       .  S
C93         C427   1.489       .  S
C93         O101   1.266       .  A
C94         C364   1.480       .  S
C94          O99   1.268       .  A
C94          O97   1.265       .  A
Cd95        O102   2.455       .  S
Cd95        O101   2.459       .  S
Cd95        O100   2.480       .  S
Cd95         O96   2.489       .  S
Cd95         O99   2.482       .  S
Cd95         O97   2.466       .  S
C98         C417   1.482       .  S
C98         O102   1.262       .  A
C103        C104   1.410   1_655  A
C103        C108   1.402       .  A
C103        C344   1.476       .  S
C104        C105   1.400       .  A
C104        C314   1.476   1_565  S
C105        C698   1.402   1_554  A
C105        H110   1.085   1_565  S
C106        C107   1.412   1_455  A
C106        C697   1.402       .  A
C106        C327   1.473       .  S
C107        C700   1.402       .  A
C107        C337   1.480       .  S
C108        C699   1.403   1_554  A
C108        H109   1.084       .  S
O111        C114   1.268       .  A
O111       Cd116   2.494   1_545  S
C112        C304   1.481       .  S
C112        O121   1.268       .  A
C112        O117   1.264       .  A
O113        C119   1.267       .  A
O113       Cd116   2.484       .  S
C114        C317   1.484       .  S
C114        O122   1.265   1_545  A
C115        C297   1.479       .  S
C115        O120   1.267       .  A
C115        O118   1.264       .  A
Cd116       O123   2.433   1_565  S
Cd116       O122   2.452       .  S
Cd116       O121   2.484   1_565  S
Cd116       O117   2.452   1_565  S
Cd116       O120   2.496       .  S
Cd116       O118   2.428       .  S
C119        C324   1.478       .  S
C119        O123   1.265   1_565  A
O124        C127   1.264       .  A
O124       Cd129   2.482   1_545  S
C125        C347   1.482       .  S
C125        O134   1.265       .  A
C125        O130   1.268   1_565  A
O126        C132   1.268       .  A
O126       Cd129   2.520       .  S
C127        C284   1.483       .  S
C127        O135   1.263       .  A
C128        C274   1.477       .  S
C128        O133   1.266       .  A
C128        O131   1.271       .  A
Cd129       O136   2.432   1_565  S
Cd129       O135   2.494   1_565  S
Cd129       O134   2.466       .  S
Cd129       O130   2.486   1_565  S
Cd129       O133   2.429       .  S
Cd129       O131   2.484       .  S
C132        C334   1.484       .  S
C132        O136   1.261   1_565  A
N137        C142   1.354       .  A
N137        C141   1.353       .  A
N137        H169   1.042       .  S
N138        C145   1.352       .  A
N138        C146   1.350       .  A
N139        C144   1.354       .  A
N139        C143   1.353       .  A
N139        H170   1.040       .  S
N140        C147   1.351       .  A
N140        C148   1.350       .  A
C141        C149   1.385       .  A
C141        C157   1.413       .  A
C142        C158   1.416       .  A
C142        C150   1.387       .  A
C143        C151   1.388       .  A
C143        C160   1.417       .  A
C144        C159   1.418       .  A
C144        C152   1.387       .  A
C145        C157   1.412       .  A
C145        C153   1.386       .  A
C146        C160   1.413       .  A
C146        C154   1.387       .  A
C147        C155   1.386       .  A
C147        C158   1.411       .  A
C148        C156   1.386       .  A
C148        C159   1.412       .  A
C149        C150   1.376       .  A
C149        H161   1.082       .  S
C150        H162   1.082       .  S
C151        C152   1.377       .  A
C151        H163   1.082       .  S
C152        H164   1.082       .  S
C153        C154   1.372       .  A
C153        H165   1.082       .  S
C154        H166   1.082       .  S
C155        C156   1.372       .  A
C155        H167   1.082       .  S
C156        H168   1.082       .  S
C157        C517   1.492       .  S
C158        C287   1.492       .  S
C159        C357   1.490       .  S
C160        C447   1.486       .  S
N171        C176   1.356       .  A
N171        C175   1.354       .  A
N171        H203   1.036       .  S
N172        C179   1.351       .  A
N172        C180   1.352       .  A
N173        C178   1.354       .  A
N173        C177   1.356       .  A
N173        H204   1.038       .  S
N174        C181   1.353       .  A
N174        C182   1.352       .  A
C175        C183   1.388       .  A
C175        C191   1.419       .  A
C176        C192   1.419       .  A
C176        C184   1.386       .  A
C177        C185   1.385       .  A
C177        C194   1.416       .  A
C178        C193   1.420       .  A
C178        C186   1.389       .  A
C179        C191   1.415       .  A
C179        C187   1.388       .  A
C180        C194   1.412       .  A
C180        C188   1.386       .  A
C181        C189   1.386       .  A
C181        C192   1.415       .  A
C182        C190   1.387       .  A
C182        C193   1.416       .  A
C183        C184   1.375       .  A
C183        H195   1.082       .  S
C184        H196   1.082       .  S
C185        C186   1.374       .  A
C185        H197   1.082       .  S
C186        H198   1.082       .  S
C187        C188   1.371       .  A
C187        H199   1.082       .  S
C188        H200   1.082       .  S
C189        C190   1.372       .  A
C189        H201   1.082       .  S
C190        H202   1.082       .  S
C191        C277   1.485       .  S
C192        C527   1.494       .  S
C193        C437   1.492       .  S
C194        C367   1.488       .  S
N205        C210   1.355       .  A
N205        C209   1.354       .  A
N205        H237   1.038       .  S
N206        C213   1.354       .  A
N206        C214   1.353       .  A
N207        C212   1.355       .  A
N207        C211   1.354       .  A
N207        H238   1.040       .  S
N208        C215   1.351       .  A
N208        C216   1.351       .  A
C209        C217   1.386       .  A
C209        C225   1.416       .  A
C210        C226   1.419       .  A
C210        C218   1.389       .  A
C211        C219   1.387       .  A
C211        C228   1.417       .  A
C212        C227   1.416       .  A
C212        C220   1.387       .  A
C213        C225   1.417       .  A
C213        C221   1.386       .  A
C214        C228   1.417       .  A
C214        C222   1.387       .  A
C215        C223   1.388       .  A
C215        C226   1.414       .  A
C216        C224   1.386       .  A
C216        C227   1.412       .  A
C217        C218   1.374       .  A
C217        H229   1.082       .  S
C218        H230   1.081       .  S
C219        C220   1.375       .  A
C219        H231   1.082       .  S
C220        H232   1.082       .  S
C221        C222   1.373       .  A
C221        H233   1.082       .  S
C222        H234   1.082       .  S
C223        C224   1.372       .  A
C223        H235   1.081       .  S
C224        H236   1.082       .  S
C225        C387   1.495       .  S
C226        C454   1.486       .  S
C227        C547   1.488       .  S
C228        C307   1.494       .  S
N239        C244   1.353       .  A
N239        C243   1.352       .  A
N239        H271   1.040       .  S
N240        C247   1.351       .  A
N240        C248   1.351       .  A
N241        C246   1.354       .  A
N241        C245   1.354       .  A
N241        H272   1.039       .  S
N242        C249   1.351       .  A
N242        C250   1.351       .  A
C243        C251   1.387       .  A
C243        C259   1.414       .  A
C244        C260   1.415       .  A
C244        C252   1.388       .  A
C245        C253   1.386       .  A
C245        C262   1.416       .  A
C246        C261   1.419       .  A
C246        C254   1.388       .  A
C247        C259   1.412       .  A
C247        C255   1.386       .  A
C248        C262   1.412       .  A
C248        C256   1.386       .  A
C249        C257   1.386       .  A
C249        C260   1.414       .  A
C250        C258   1.387       .  A
C250        C261   1.412       .  A
C251        C252   1.376       .  A
C251        H263   1.082       .  S
C252        H264   1.082       .  S
C253        C254   1.375       .  A
C253        H265   1.082       .  S
C254        H266   1.082       .  S
C255        C256   1.374       .  A
C255        H267   1.082       .  S
C256        H268   1.082       .  S
C257        C258   1.371       .  A
C257        H269   1.082       .  S
C258        H270   1.081       .  S
C259        C374   1.486       .  S
C260        C464   1.489       .  S
C261        C537   1.486       .  S
C262        C294   1.488       .  S
C273        C274   1.406       .  A
C273        C278   1.397       .  A
C273        H280   1.083       .  S
C274        C275   1.407       .  A
C275        C276   1.400       .  A
C275        F282   1.357       .  S
C276        C277   1.403       .  A
C276        H281   1.083       .  S
C277        C278   1.403       .  A
C278        F279   1.357       .  S
C283        C284   1.405       .  A
C283        C288   1.398       .  A
C283        H290   1.083       .  S
C284        C285   1.409       .  A
C285        C286   1.401       .  A
C285        F292   1.357       .  S
C286        C287   1.404       .  A
C286        H291   1.083       .  S
C287        C288   1.407       .  A
C288        F289   1.358       .  S
C293        C294   1.406       .  A
C293        C298   1.402       .  A
C293        H300   1.083       .  S
C294        C295   1.403       .  A
C295        C296   1.394       .  A
C295        F302   1.357       .  S
C296        C297   1.405       .  A
C296        H301   1.083       .  S
C297        C298   1.408       .  A
C298        F299   1.358       .  S
C303        C304   1.405       .  A
C303        C308   1.401       .  A
C303        H310   1.083       .  S
C304        C305   1.408       .  A
C305        C306   1.397       .  A
C305        F312   1.358       .  S
C306        C307   1.404       .  A
C306        H311   1.083       .  S
C307        C308   1.408       .  A
C308        F309   1.357       .  S
C313        C314   1.401       .  A
C313        C318   1.401       .  A
C313        H320   1.083       .  S
C314        C315   1.401   1_545  A
C315        C316   1.396       .  A
C315        F322   1.358       .  S
C316        C317   1.407   1_565  A
C316        H321   1.083       .  S
C317        C318   1.411       .  A
C318        F319   1.357       .  S
C323        C324   1.406   1_545  A
C323        C328   1.394       .  A
C323        H330   1.083       .  S
C324        C325   1.409       .  A
C325        C326   1.400       .  A
C325        F332   1.357       .  S
C326        C327   1.402       .  A
C326        H331   1.083       .  S
C327        C328   1.400   1_565  A
C328        F329   1.358       .  S
C333        C334   1.407       .  A
C333        C338   1.402       .  A
C333        H340   1.083       .  S
C334        C335   1.411   1_565  A
C335        C336   1.394       .  A
C335        F342   1.357       .  S
C336        C337   1.399   1_545  A
C336        H341   1.083       .  S
C337        C338   1.404       .  A
C338        F339   1.357       .  S
C343        C344   1.399       .  A
C343        C348   1.397       .  A
C343        H350   1.083       .  S
C344        C345   1.403   1_565  A
C345        C346   1.400       .  A
C345        F352   1.358       .  S
C346        C347   1.406   1_545  A
C346        H351   1.083       .  S
C347        C348   1.410       .  A
C348        F349   1.357       .  S
C353        C354   1.405       .  A
C353        C358   1.402       .  A
C353        H360   1.083       .  S
C354        C355   1.406       .  A
C355        C356   1.398       .  A
C355        F362   1.357       .  S
C356        C357   1.404       .  A
C356        H361   1.083       .  S
C357        C358   1.405       .  A
C358        F359   1.357       .  S
C363        C364   1.406       .  A
C363        C368   1.400       .  A
C363        H370   1.083       .  S
C364        C365   1.407       .  A
C365        C366   1.401       .  A
C365        F372   1.357       .  S
C366        C367   1.403       .  A
C366        H371   1.083       .  S
C367        C368   1.404       .  A
C368        F369   1.357       .  S
C373        C374   1.405       .  A
C373        C378   1.401       .  A
C373        H380   1.083       .  S
C374        C375   1.403       .  A
C375        C376   1.394       .  A
C375        F382   1.358       .  S
C376        C377   1.405       .  A
C376        H381   1.083       .  S
C377        C378   1.408       .  A
C378        F379   1.357       .  S
C383        C384   1.407       .  A
C383        C388   1.400       .  A
C383        H390   1.083       .  S
C384        C385   1.408       .  A
C385        C386   1.400       .  A
C385        F392   1.357       .  S
C386        C387   1.404       .  A
C386        H391   1.083       .  S
C387        C388   1.408       .  A
C388        F389   1.358       .  S
C393        C394   1.402       .  A
C393        C398   1.399       .  A
C393        H400   1.083       .  S
C394        C395   1.403       .  A
C395        C396   1.398       .  A
C395        F402   1.358       .  S
C396        C397   1.408       .  A
C396        H401   1.083       .  S
C397        C398   1.408       .  A
C398        F399   1.357       .  S
C403        C404   1.404       .  A
C403        C408   1.401       .  A
C403        H410   1.083       .  S
C404        C405   1.405       .  A
C405        C406   1.398       .  A
C405        F412   1.357       .  S
C406        C407   1.406       .  A
C406        H411   1.083       .  S
C407        C408   1.410       .  A
C408        F409   1.357       .  S
C413        C414   1.401       .  A
C413        C418   1.398       .  A
C413        H420   1.083       .  S
C414        C415   1.405       .  A
C415        C416   1.402       .  A
C415        F422   1.357       .  S
C416        C417   1.406       .  A
C416        H421   1.083       .  S
C417        C418   1.410       .  A
C418        F419   1.358       .  S
C423        C424   1.405       .  A
C423        C428   1.400       .  A
C423        H430   1.082       .  S
C424        C425   1.408       .  A
C425        C426   1.402       .  A
C425        F432   1.357       .  S
C426        C427   1.406       .  A
C426        H431   1.083       .  S
C427        C428   1.410       .  A
C428        F429   1.357       .  S
C433        C434   1.406       .  A
C433        C438   1.399       .  A
C433        H440   1.083   1_554  S
C434        C435   1.409       .  A
C435        C436   1.396       .  A
C435        F442   1.357       .  S
C436        C437   1.404       .  A
C436        H441   1.084       .  S
C437        C438   1.407       .  A
C438        F439   1.357       .  S
C443        C444   1.404       .  A
C443        C448   1.397       .  A
C443        H450   1.083       .  S
C444        C445   1.408       .  A
C445        C446   1.394       .  A
C445        F452   1.358       .  S
C446        C447   1.402       .  A
C446        H451   1.083       .  S
C447        C448   1.407       .  A
C448        F449   1.357       .  S
C453        C454   1.401       .  A
C453        C458   1.395       .  A
C453        H460   1.083       .  S
C454        C455   1.405       .  A
C455        C456   1.400       .  A
C455        F462   1.357       .  S
C456        C457   1.405       .  A
C456        H461   1.083       .  S
C457        C458   1.408       .  A
C458        F459   1.358       .  S
C463        C464   1.405       .  A
C463        C468   1.401       .  A
C463        H470   1.083       .  S
C464        C465   1.404       .  A
C465        C466   1.394       .  A
C465        F472   1.357       .  S
C466        C467   1.403       .  A
C466        H471   1.083       .  S
C467        C468   1.410       .  A
C468       F1061   1.358       .  S
F469       C1060   1.358       .  S
C473        C474   1.404       .  A
C473        C478   1.401       .  A
C473        H480   1.083       .  S
C474        C475   1.404       .  A
C475        C476   1.395       .  A
C475        F482   1.356       .  S
C476        C477   1.405       .  A
C476        H481   1.083       .  S
C477        C478   1.409       .  A
C478        F479   1.357       .  S
C483        C484   1.406       .  A
C483        C488   1.404       .  A
C483        H490   1.083       .  S
C484        C485   1.403       .  A
C485        C486   1.394       .  A
C485        F492   1.357       .  S
C486        C487   1.405       .  A
C486        H491   1.083       .  S
C487        C488   1.410       .  A
C488        F489   1.357       .  S
C493        C494   1.406       .  A
C493        C498   1.400       .  A
C493        H500   1.083       .  S
C494        C495   1.411       .  A
C495        C496   1.396       .  A
C495        F502   1.357       .  S
C496        C497   1.400       .  A
C496        H501   1.084       .  S
C497        C498   1.405       .  A
C498        F499   1.357       .  S
C503        C504   1.403       .  A
C503        C508   1.401       .  A
C503        H510   1.083       .  S
C504        C505   1.404       .  A
C505        C506   1.396       .  A
C505        F512   1.357       .  S
C506        C507   1.406       .  A
C506        H511   1.083       .  S
C507        C508   1.410       .  A
C508        F509   1.357       .  S
C513        C514   1.407       .  A
C513        C518   1.398       .  A
C513        H520   1.083       .  S
C514        C515   1.409       .  A
C515        C516   1.401       .  A
C515        F522   1.357       .  S
C516        C517   1.405       .  A
C516        H521   1.083       .  S
C517        C518   1.405       .  A
C518        F519   1.358       .  S
C523        C524   1.405       .  A
C523        C528   1.400       .  A
C523        H530   1.083   1_554  S
C524        C525   1.411       .  A
C525        C526   1.401       .  A
C525        F532   1.358       .  S
C526        C527   1.404       .  A
C526        H531   1.083       .  S
C527        C528   1.406       .  A
C528        F529   1.357       .  S
C533        C534   1.406       .  A
C533        C538   1.402       .  A
C533       H1132   1.083   1_554  S
C534        C535   1.409       .  A
C535        C536   1.394       .  A
C535        F542   1.357       .  S
C536        C537   1.400       .  A
C536        H541   1.084       .  S
C537        C538   1.406       .  A
C538        F539   1.357   1_554  S
H540       C1125   1.083       .  S
C543        C544   1.405       .  A
C543        C548   1.400       .  A
C543        H550   1.083       .  S
C544        C545   1.407       .  A
C545        C546   1.395       .  A
C545        F552   1.358       .  S
C546        C547   1.402       .  A
C546        H551   1.083       .  S
C547        C548   1.406       .  A
C548        F549   1.357       .  S
C553        C554   1.406   1_565  A
C553        C558   1.395       .  A
C553        H560   1.083       .  S
C554        C555   1.410       .  A
C555        C556   1.402       .  A
C555        F562   1.357       .  S
C556        C557   1.403       .  A
C556        H561   1.083       .  S
C557        C558   1.401   1_545  A
C558        F559   1.357       .  S
C563        C564   1.405   1_565  A
C563        C568   1.402       .  A
C563        H570   1.083       .  S
C564        C565   1.403       .  A
C565        C566   1.396       .  A
C565        F572   1.358       .  S
C566        C567   1.407   1_545  A
C566        H571   1.083       .  S
C567        C568   1.409       .  A
C568        F569   1.357       .  S
C573        C574   1.408       .  A
C573        C578   1.400       .  A
C573        H580   1.083       .  S
C574        C575   1.410   1_545  A
C575        C576   1.401       .  A
C575        F582   1.357       .  S
C576        C577   1.403   1_565  A
C576        H581   1.083       .  S
C577        C578   1.405       .  A
C578        F579   1.358       .  S
C583        C584   1.399   1_565  A
C583        C588   1.398       .  A
C583        H590   1.083       .  S
C584        C585   1.405       .  A
C585        C586   1.403       .  A
C585        F592   1.357       .  S
C586        C587   1.407       .  A
C586        H591   1.083       .  S
C587        C588   1.411   1_545  A
C588        F589   1.357       .  S
C593        C594   1.410       .  A
C593        C598   1.405       .  A
C593       C1176   1.482       .  S
C594        C595   1.401       .  A
C594       C1149   1.478       .  S
C595        C596   1.405       .  A
C595        H600   1.085       .  S
C596        C597   1.415       .  A
C596       C1156   1.484       .  S
C597        C598   1.408       .  A
C597       C1169   1.486       .  S
C598        H599   1.084       .  S
O601        C604   1.266       .  A
C602       C1146   1.481       .  S
C602        O611   1.264   1_545  A
C602        O607   1.266       .  A
O603        C609   1.268       .  A
O603       Cd606   2.502       .  S
C604       C1136   1.474       .  S
C604        O612   1.266       .  A
C605       C1159   1.483       .  S
C605        O610   1.266       .  A
C605        O608   1.261   1_565  A
Cd606       O613   2.429       .  S
Cd606       O611   2.443       .  S
Cd606       O607   2.490   1_565  S
C609       C1126   1.479       .  S
C609        O613   1.263       .  A
O614        C617   1.267   1_554  A
O614       Cd619   2.503   1_554  S
C615       C1179   1.484       .  S
C615        O624   1.264   1_545  A
C615        O620   1.269       .  A
O616        C622   1.268   1_565  A
O616       Cd619   2.500   1_565  S
C617       C1106   1.486       .  S
C617        O625   1.264       .  A
C618       C1116   1.486       .  S
C618        O623   1.269       .  A
C618        O621   1.265       .  A
Cd619       O626   2.467       .  S
Cd619       O625   2.462       .  S
C622       C1166   1.489       .  S
C622        O626   1.265       .  A
C627        C628   1.416       .  A
C627        C632   1.405       .  A
C627       C1076   1.487       .  S
C628        C629   1.406       .  A
C628       C1096   1.483       .  S
C629        C630   1.403       .  A
C629        H634   1.084       .  S
C630        C631   1.412       .  A
C630       C1089   1.480       .  S
C631        C632   1.402       .  A
C631       C1066   1.482       .  S
C632        H633   1.084       .  S
O635        C638   1.263       .  A
C636       C1079   1.484       .  S
C636        O645   1.263       .  A
C636        O641   1.266       .  A
O637        C643   1.265       .  A
C638       C1049   1.476       .  S
C638        O646   1.268   1_556  A
C639       C1059   1.478       .  S
C639        O644   1.265       .  A
C639        O642   1.268       .  A
Cd640       O645   2.443       .  S
Cd640       O641   2.508       .  S
Cd640       O644   2.466       .  S
Cd640       O642   2.455       .  S
C643       C1069   1.480       .  S
C643        O647   1.264       .  A
O648        C651   1.267       .  A
O648       Cd653   2.484       .  S
C649       C1036   1.474       .  S
C649        O658   1.268   1_556  A
O650        C656   1.268       .  A
C651       C1099   1.483       .  S
C651        O659   1.265       .  A
C652       C1026   1.480       .  S
C652        O657   1.264       .  A
C652        O655   1.267       .  A
Cd653       O659   2.447       .  S
Cd653       O654   2.429       .  S
Cd653       O657   2.454       .  S
Cd653       O655   2.479       .  S
C656       C1086   1.482       .  S
C656        O660   1.264       .  A
C661        C662   1.417   1_655  A
C661        C666   1.406       .  A
C661       C1016   1.494       .  S
C662        C663   1.404       .  A
C662        C986   1.479       .  S
C663        H668   1.085       .  S
C664        C665   1.414   1_455  A
C664        C996   1.487       .  S
C665       C1006   1.481       .  S
C666        H667   1.084       .  S
O669        C672   1.267       .  A
O669       Cd674   2.489       .  S
C670        C989   1.483       .  S
C670        O679   1.264       .  A
C670        O675   1.269       .  A
O671        C677   1.266       .  A
O671       Cd674   2.471       .  S
C672        C976   1.485       .  S
C672        O680   1.264       .  A
C673        C969   1.477       .  S
C673        O678   1.267       .  A
C673        O676   1.265       .  A
Cd674       O681   2.464       .  S
Cd674       O680   2.469       .  S
Cd674       O679   2.457       .  S
Cd674       O675   2.493       .  S
Cd674       O678   2.477       .  S
Cd674       O676   2.436       .  S
C677        C999   1.484       .  S
C677        O681   1.266       .  A
O682        C685   1.269       .  A
O682       Cd687   2.493       .  S
C683        C946   1.477       .  S
C683        O692   1.263       .  A
C683        O688   1.266       .  A
O684        C690   1.267       .  A
O684       Cd687   2.511       .  S
C685       C1019   1.489       .  S
C685        O693   1.266       .  A
C686        C956   1.480       .  S
C686        O691   1.268       .  A
C686        O689   1.265       .  A
Cd687       O694   2.451       .  S
Cd687       O693   2.459       .  S
Cd687       O692   2.479       .  S
Cd687       O688   2.490       .  S
Cd687       O691   2.481       .  S
Cd687       O689   2.466       .  S
C690       C1009   1.481       .  S
C690        O694   1.262       .  A
C695        C696   1.410   1_655  A
C695        C700   1.401       .  A
C695        C936   1.475       .  S
C696        C697   1.400       .  A
C696        C906   1.475   1_565  S
C697        H702   1.085   1_565  S
C698        C699   1.412   1_455  A
C698        C919   1.475       .  S
C699        C929   1.481       .  S
C700        H701   1.084       .  S
O703        C706   1.268       .  A
O703       Cd708   2.493   1_545  S
C704        C896   1.481       .  S
C704        O713   1.268       .  A
C704        O709   1.264       .  A
O705        C711   1.267       .  A
O705       Cd708   2.484       .  S
C706        C909   1.483       .  S
C706        O714   1.265   1_545  A
C707        C889   1.480       .  S
C707        O712   1.267       .  A
C707        O710   1.264       .  A
Cd708       O715   2.435   1_565  S
Cd708       O714   2.448       .  S
Cd708       O713   2.484   1_565  S
Cd708       O709   2.448   1_565  S
Cd708       O712   2.500       .  S
Cd708       O710   2.430       .  S
C711        C916   1.478       .  S
C711        O715   1.265   1_565  A
O716        C719   1.264       .  A
O716       Cd721   2.477   1_545  S
C717        C939   1.480       .  S
C717        O726   1.265       .  A
C717        O722   1.268   1_565  A
O718        C724   1.268       .  A
O718       Cd721   2.515       .  S
C719        C876   1.482       .  S
C719        O727   1.263       .  A
C720        C866   1.477       .  S
C720        O725   1.266       .  A
C720        O723   1.271       .  A
Cd721       O728   2.438   1_565  S
Cd721       O727   2.495   1_565  S
Cd721       O726   2.465       .  S
Cd721       O722   2.486   1_565  S
Cd721       O725   2.430       .  S
Cd721       O723   2.486       .  S
C724        C926   1.484       .  S
C724        O728   1.261   1_565  A
N729        C734   1.354       .  A
N729        C733   1.353       .  A
N729        H761   1.042       .  S
N730        C737   1.352       .  A
N730        C738   1.351       .  A
N731        C736   1.354       .  A
N731        C735   1.353       .  A
N731        H762   1.039       .  S
N732        C739   1.351       .  A
N732        C740   1.350       .  A
C733        C741   1.385       .  A
C733        C749   1.414       .  A
C734        C750   1.416       .  A
C734        C742   1.387       .  A
C735        C743   1.388       .  A
C735        C752   1.418       .  A
C736        C751   1.418       .  A
C736        C744   1.387       .  A
C737        C749   1.412       .  A
C737        C745   1.386       .  A
C738        C752   1.414       .  A
C738        C746   1.387       .  A
C739        C747   1.386       .  A
C739        C750   1.411       .  A
C740        C748   1.386       .  A
C740        C751   1.412       .  A
C741        C742   1.376       .  A
C741        H753   1.082       .  S
C742        H754   1.082       .  S
C743        C744   1.377       .  A
C743        H755   1.082       .  S
C744        H756   1.082       .  S
C745        C746   1.372       .  A
C745        H757   1.082       .  S
C746        H758   1.082       .  S
C747        C748   1.372       .  A
C747        H759   1.082       .  S
C748        H760   1.082       .  S
C749       C1109   1.493       .  S
C750        C879   1.492       .  S
C751        C949   1.490       .  S
C752       C1039   1.486       .  S
N763        C768   1.356       .  A
N763        C767   1.354       .  A
N763        H795   1.036       .  S
N764        C771   1.351       .  A
N764        C772   1.352       .  A
N765        C770   1.353       .  A
N765        C769   1.356       .  A
N765        H796   1.038       .  S
N766        C773   1.353       .  A
N766        C774   1.352       .  A
C767        C775   1.388       .  A
C767        C783   1.419       .  A
C768        C784   1.418       .  A
C768        C776   1.386       .  A
C769        C777   1.385       .  A
C769        C786   1.416       .  A
C770        C785   1.419       .  A
C770        C778   1.389       .  A
C771        C783   1.415       .  A
C771        C779   1.388       .  A
C772        C786   1.412       .  A
C772        C780   1.386       .  A
C773        C781   1.386       .  A
C773        C784   1.415       .  A
C774        C782   1.387       .  A
C774        C785   1.416       .  A
C775        C776   1.375       .  A
C775        H787   1.082       .  S
C776        H788   1.082       .  S
C777        C778   1.374       .  A
C777        H789   1.082       .  S
C778        H790   1.082       .  S
C779        C780   1.372       .  A
C779        H791   1.082       .  S
C780        H792   1.082       .  S
C781        C782   1.372       .  A
C781        H793   1.082       .  S
C782        H794   1.082       .  S
C783        C869   1.484       .  S
C784       C1119   1.495       .  S
C785       C1029   1.491       .  S
C786        C959   1.488       .  S
N797        C802   1.355       .  A
N797        C801   1.354       .  A
N797        H829   1.038       .  S
N798        C805   1.354       .  A
N798        C806   1.353       .  A
N799        C804   1.354       .  A
N799        C803   1.353       .  A
N799        H830   1.040       .  S
N800        C807   1.351       .  A
N800        C808   1.351       .  A
C801        C809   1.386       .  A
C801        C817   1.416       .  A
C802        C818   1.419       .  A
C802        C810   1.389       .  A
C803        C811   1.387       .  A
C803        C820   1.416       .  A
C804        C819   1.416       .  A
C804        C812   1.387       .  A
C805        C817   1.416       .  A
C805        C813   1.386       .  A
C806        C820   1.416       .  A
C806        C814   1.387       .  A
C807        C815   1.388       .  A
C807        C818   1.414       .  A
C808        C816   1.386       .  A
C808        C819   1.412       .  A
C809        C810   1.374       .  A
C809        H821   1.082       .  S
C810        H822   1.081       .  S
C811        C812   1.375       .  A
C811        H823   1.082       .  S
C812        H824   1.082       .  S
C813        C814   1.373       .  A
C813        H825   1.082       .  S
C814        H826   1.082       .  S
C815        C816   1.372       .  A
C815        H827   1.081       .  S
C816        H828   1.082       .  S
C817        C979   1.495       .  S
C818       C1046   1.486       .  S
C819       C1139   1.487       .  S
C820        C899   1.494       .  S
N831        C836   1.353       .  A
N831        C835   1.352       .  A
N831        H863   1.040       .  S
N832        C839   1.351       .  A
N832        C840   1.351       .  A
N833        C838   1.355       .  A
N833        C837   1.354       .  A
N833        H864   1.039       .  S
N834        C841   1.351       .  A
N834        C842   1.351       .  A
C835        C843   1.387       .  A
C835        C851   1.414       .  A
C836        C852   1.416       .  A
C836        C844   1.388       .  A
C837        C845   1.386       .  A
C837        C854   1.417       .  A
C838        C853   1.419       .  A
C838        C846   1.388       .  A
C839        C851   1.412       .  A
C839        C847   1.386       .  A
C840        C854   1.412       .  A
C840        C848   1.386       .  A
C841        C849   1.386       .  A
C841        C852   1.414       .  A
C842        C850   1.387       .  A
C842        C853   1.413       .  A
C843        C844   1.376       .  A
C843        H855   1.082       .  S
C844        H856   1.082       .  S
C845        C846   1.375       .  A
C845        H857   1.082       .  S
C846        H858   1.082       .  S
C847        C848   1.374       .  A
C847        H859   1.082       .  S
C848        H860   1.082       .  S
C849        C850   1.371       .  A
C849        H861   1.082       .  S
C850        H862   1.081       .  S
C851        C966   1.487       .  S
C852       C1056   1.489       .  S
C853       C1129   1.487       .  S
C854        C886   1.489       .  S
C865        C866   1.406       .  A
C865        C870   1.397       .  A
C865        H872   1.083       .  S
C866        C867   1.407       .  A
C867        C868   1.400       .  A
C867        F874   1.357       .  S
C868        C869   1.403       .  A
C868        H873   1.083       .  S
C869        C870   1.403       .  A
C870        F871   1.357       .  S
C875        C876   1.405       .  A
C875        C880   1.398       .  A
C875        H882   1.083       .  S
C876        C877   1.409       .  A
C877        C878   1.400       .  A
C877        F884   1.357       .  S
C878        C879   1.405       .  A
C878        H883   1.083       .  S
C879        C880   1.407       .  A
C880        F881   1.357       .  S
C885        C886   1.406       .  A
C885        C890   1.403       .  A
C885        H892   1.083       .  S
C886        C887   1.403       .  A
C887        C888   1.394       .  A
C887        F894   1.357       .  S
C888        C889   1.405       .  A
C888        H893   1.083       .  S
C889        C890   1.409       .  A
C890        F891   1.358       .  S
C895        C896   1.405       .  A
C895        C900   1.401       .  A
C895        H902   1.083       .  S
C896        C897   1.409       .  A
C897        C898   1.397       .  A
C897        F904   1.358       .  S
C898        C899   1.404       .  A
C898        H903   1.083       .  S
C899        C900   1.407       .  A
C900        F901   1.357       .  S
C905        C906   1.401       .  A
C905        C910   1.401       .  A
C905        H912   1.083       .  S
C906        C907   1.401   1_545  A
C907        C908   1.396       .  A
C907        F914   1.358       .  S
C908        C909   1.407   1_565  A
C908        H913   1.083       .  S
C909        C910   1.410       .  A
C910        F911   1.357       .  S
C915        C916   1.406   1_545  A
C915        C920   1.394       .  A
C915        H922   1.083       .  S
C916        C917   1.409       .  A
C917        C918   1.400       .  A
C917        F924   1.357       .  S
C918        C919   1.403       .  A
C918        H923   1.083       .  S
C919        C920   1.400   1_565  A
C920        F921   1.357       .  S
C925        C926   1.407       .  A
C925        C930   1.402       .  A
C925        H932   1.083       .  S
C926        C927   1.412   1_565  A
C927        C928   1.395       .  A
C927        F934   1.357       .  S
C928        C929   1.400   1_545  A
C928        H933   1.083       .  S
C929        C930   1.404       .  A
C930        F931   1.357       .  S
C935        C936   1.399       .  A
C935        C940   1.397       .  A
C935        H942   1.083       .  S
C936        C937   1.404   1_565  A
C937        C938   1.400       .  A
C937        F944   1.358       .  S
C938        C939   1.406   1_545  A
C938        H943   1.083       .  S
C939        C940   1.409       .  A
C940        F941   1.357       .  S
C945        C946   1.405       .  A
C945        C950   1.402       .  A
C945        H952   1.083       .  S
C946        C947   1.406       .  A
C947        C948   1.398       .  A
C947        F954   1.358       .  S
C948        C949   1.404       .  A
C948        H953   1.083       .  S
C949        C950   1.405       .  A
C950        F951   1.357       .  S
C955        C956   1.406       .  A
C955        C960   1.400       .  A
C955        H962   1.083       .  S
C956        C957   1.407       .  A
C957        C958   1.401       .  A
C957        F964   1.357       .  S
C958        C959   1.403       .  A
C958        H963   1.083       .  S
C959        C960   1.404       .  A
C960        F961   1.357       .  S
C965        C966   1.405       .  A
C965        C970   1.401       .  A
C965        H972   1.083       .  S
C966        C967   1.404       .  A
C967        C968   1.395       .  A
C967        F974   1.358       .  S
C968        C969   1.405       .  A
C968        H973   1.083       .  S
C969        C970   1.408       .  A
C970        F971   1.357       .  S
C975        C976   1.407       .  A
C975        C980   1.400       .  A
C975        H982   1.083       .  S
C976        C977   1.408       .  A
C977        C978   1.400       .  A
C977        F984   1.357       .  S
C978        C979   1.404       .  A
C978        H983   1.083       .  S
C979        C980   1.407       .  A
C980        F981   1.358       .  S
C985        C986   1.402       .  A
C985        C990   1.399       .  A
C985        H992   1.083       .  S
C986        C987   1.403       .  A
C987        C988   1.399       .  A
C987        F994   1.358       .  S
C988        C989   1.408       .  A
C988        H993   1.083       .  S
C989        C990   1.408       .  A
C990        F991   1.356       .  S
C995        C996   1.404       .  A
C995       C1000   1.401       .  A
C995       H1002   1.083       .  S
C996        C997   1.405       .  A
C997        C998   1.398       .  A
C997       F1004   1.357       .  S
C998        C999   1.406       .  A
C998       H1003   1.083       .  S
C999       C1000   1.410       .  A
C1000      F1001   1.357       .  S
C1005      C1006   1.401       .  A
C1005      C1010   1.397       .  A
C1005      H1012   1.083       .  S
C1006      C1007   1.405       .  A
C1007      C1008   1.402       .  A
C1007      F1014   1.357       .  S
C1008      C1009   1.405       .  A
C1008      H1013   1.083       .  S
C1009      C1010   1.409       .  A
C1010      F1011   1.358       .  S
C1015      C1016   1.405       .  A
C1015      C1020   1.400       .  A
C1015      H1022   1.082       .  S
C1016      C1017   1.408       .  A
C1017      C1018   1.402       .  A
C1017      F1024   1.357       .  S
C1018      C1019   1.406       .  A
C1018      H1023   1.083       .  S
C1019      C1020   1.410       .  A
C1020      F1021   1.357       .  S
C1025      C1026   1.406       .  A
C1025      C1030   1.399       .  A
C1025      H1032   1.083       .  S
C1026      C1027   1.409       .  A
C1027      C1028   1.395       .  A
C1027      F1034   1.357       .  S
C1028      C1029   1.404       .  A
C1028      H1033   1.084       .  S
C1029      C1030   1.407       .  A
C1030      F1031   1.357       .  S
C1035      C1036   1.404       .  A
C1035      C1040   1.397       .  A
C1035      H1042   1.083   1_556  S
C1036      C1037   1.408       .  A
C1037      C1038   1.395       .  A
C1037      F1044   1.358       .  S
C1038      C1039   1.402       .  A
C1038      H1043   1.083       .  S
C1039      C1040   1.407       .  A
C1040      F1041   1.357   1_556  S
C1045      C1046   1.401       .  A
C1045      C1050   1.395       .  A
C1045      H1052   1.083       .  S
C1046      C1047   1.405       .  A
C1047      C1048   1.400       .  A
C1047      F1054   1.357   1_556  S
C1048      C1049   1.405       .  A
C1048      H1053   1.083   1_556  S
C1049      C1050   1.408       .  A
C1050      F1051   1.358       .  S
C1055      C1056   1.405       .  A
C1055      C1060   1.401       .  A
C1055      H1062   1.083       .  S
C1056      C1057   1.404       .  A
C1057      C1058   1.394       .  A
C1057      F1064   1.357       .  S
C1058      C1059   1.403       .  A
C1058      H1063   1.083       .  S
C1059      C1060   1.410       .  A
C1065      C1066   1.404       .  A
C1065      C1070   1.401       .  A
C1065      H1072   1.083       .  S
C1066      C1067   1.404       .  A
C1067      C1068   1.395       .  A
C1067      F1074   1.356       .  S
C1068      C1069   1.405       .  A
C1068      H1073   1.083       .  S
C1069      C1070   1.409       .  A
C1070      F1071   1.357       .  S
C1075      C1076   1.407       .  A
C1075      C1080   1.404       .  A
C1075      H1082   1.083       .  S
C1076      C1077   1.403       .  A
C1077      C1078   1.394       .  A
C1077      F1084   1.357       .  S
C1078      C1079   1.405       .  A
C1078      H1083   1.083       .  S
C1079      C1080   1.411       .  A
C1080      F1081   1.358       .  S
C1085      C1086   1.406       .  A
C1085      C1090   1.400       .  A
C1085      H1092   1.083       .  S
C1086      C1087   1.411       .  A
C1087      C1088   1.397       .  A
C1087      F1094   1.357       .  S
C1088      C1089   1.400       .  A
C1088      H1093   1.084       .  S
C1089      C1090   1.405       .  A
C1090      F1091   1.357       .  S
C1095      C1096   1.403       .  A
C1095      C1100   1.401       .  A
C1095      H1102   1.083       .  S
C1096      C1097   1.404       .  A
C1097      C1098   1.396       .  A
C1097      F1104   1.357       .  S
C1098      C1099   1.406       .  A
C1098      H1103   1.083       .  S
C1099      C1100   1.410       .  A
C1100      F1101   1.357       .  S
C1105      C1106   1.407       .  A
C1105      C1110   1.398       .  A
C1105      H1112   1.083       .  S
C1106      C1107   1.409       .  A
C1107      C1108   1.401       .  A
C1107      F1114   1.357   1_556  S
C1108      C1109   1.405       .  A
C1108      H1113   1.083       .  S
C1109      C1110   1.405       .  A
C1110      F1111   1.358       .  S
C1115      C1116   1.405       .  A
C1115      C1120   1.400       .  A
C1115      H1122   1.083       .  S
C1116      C1117   1.411       .  A
C1117      C1118   1.401       .  A
C1117      F1124   1.358       .  S
C1118      C1119   1.404       .  A
C1118      H1123   1.083       .  S
C1119      C1120   1.406       .  A
C1120      F1121   1.357       .  S
C1125      C1126   1.406       .  A
C1125      C1130   1.402       .  A
C1126      C1127   1.409       .  A
C1127      C1128   1.395       .  A
C1127      F1134   1.357       .  S
C1128      C1129   1.400       .  A
C1128      H1133   1.083       .  S
C1129      C1130   1.406       .  A
C1130      F1131   1.357       .  S
C1135      C1136   1.405       .  A
C1135      C1140   1.400       .  A
C1135      H1142   1.083       .  S
C1136      C1137   1.407       .  A
C1137      C1138   1.395       .  A
C1137      F1144   1.358       .  S
C1138      C1139   1.402       .  A
C1138      H1143   1.083       .  S
C1139      C1140   1.406       .  A
C1140      F1141   1.357       .  S
C1145      C1146   1.406   1_565  A
C1145      C1150   1.395       .  A
C1145      H1152   1.083       .  S
C1146      C1147   1.410       .  A
C1147      C1148   1.402       .  A
C1147      F1154   1.357       .  S
C1148      C1149   1.403       .  A
C1148      H1153   1.083       .  S
C1149      C1150   1.402   1_545  A
C1150      F1151   1.357       .  S
C1155      C1156   1.405   1_565  A
C1155      C1160   1.402       .  A
C1155      H1162   1.083       .  S
C1156      C1157   1.403       .  A
C1157      C1158   1.397       .  A
C1157      F1164   1.358       .  S
C1158      C1159   1.407   1_545  A
C1158      H1163   1.083       .  S
C1159      C1160   1.409       .  A
C1160      F1161   1.357       .  S
C1165      C1166   1.408       .  A
C1165      C1170   1.400       .  A
C1165      H1172   1.083       .  S
C1166      C1167   1.410   1_545  A
C1167      C1168   1.401       .  A
C1167      F1174   1.357       .  S
C1168      C1169   1.403   1_565  A
C1168      H1173   1.083       .  S
C1169      C1170   1.405       .  A
C1170      F1171   1.358       .  S
C1175      C1176   1.400   1_565  A
C1175      C1180   1.398       .  A
C1175      H1182   1.083       .  S
C1176      C1177   1.405       .  A
C1177      C1178   1.403       .  A
C1177      F1184   1.357       .  S
C1178      C1179   1.407       .  A
C1178      H1183   1.083       .  S
C1179      C1180   1.411   1_545  A
C1180      F1181   1.357       .  S
