geometry optimzed in LAMMPS
_audit_creation_date              2020-11-30 
_audit_creation_method            'lammps2cif' 
_symmetry_space_group_name_H-M    'P1' 
_symmetry_Int_Tables_number       1 
_symmetry_cell_setting            triclinic 
loop_ 
_symmetry_equiv_pos_as_xyz 
  x,y,z 
_cell_length_a                    35.93240081 
_cell_length_b                    35.889235637575 
_cell_length_c                    35.88811970380957 
_cell_angle_alpha                 89.58908493532229 
_cell_angle_beta                  89.49039495379014 
_cell_angle_gamma                 89.22720021430717 
loop_ 
_atom_site_label 
_atom_site_type_symbol 
_atom_site_fract_x 
_atom_site_fract_y 
_atom_site_fract_z 
_atom_site_charge 
O1          O  0.47899030  0.47927577  0.41473564    -0.77600
C2          C  0.50059844  0.39649691  0.50102375     0.83400
O3          O  0.41217881  0.02326126  0.02331718    -0.78700
O4          O  0.02214930  0.47813283  0.08875302    -0.80200
O5          O  0.08818278  0.02242972  0.47853676    -0.80000
O6          O  0.02269429  0.02283234  0.41264072    -0.78600
Zn7        Zn  0.46912248  0.46939930  0.46940908     1.55700
O8          O  0.08831197  0.47830806  0.02268774    -0.80000
Cd9        Cd  0.03234657  0.03269100  0.46838687     1.59700
Cd10       Cd  0.46790684  0.03300193  0.03301108     1.59600
O11         O  0.02204932  0.08859107  0.47833167    -0.80000
O12         O  0.50006286  0.50046066  0.50055881    -1.90500
Cd13       Cd  0.03248672  0.46821301  0.03286762     1.59900
O14         O  0.47806059  0.08892707  0.02273969    -0.80000
O15         O  0.02277995  0.41245228  0.02310260    -0.78600
C16         C  0.39621301  0.50105342  0.50118840     0.83900
C17         C  0.50058805  0.50077234  0.39660605     0.83600
O18         O  0.47903184  0.41471402  0.47939214    -0.77600
C19         C  0.10538998  0.00041667  0.00067897     0.84400
O20         O  0.41461522  0.47951331  0.47955504    -0.77700
C21         C  0.00012802  0.10579428  0.00055912     0.84500
C22         C  0.00010462  0.00033147  0.10587438     0.84800
O23         O  0.47802087  0.02259737  0.08892548    -0.80100
O24         O  0.47907498  0.47885015  0.16450800    -0.77600
C25         C  0.50065618  0.39576849  0.25123347     0.83400
O26         O  0.41197234  0.02232732  0.27317211    -0.78700
O27         O  0.02222778  0.47801628  0.33894654    -0.80200
O28         O  0.08803132  0.02164935  0.22856357    -0.80000
O29         O  0.02258791  0.02260114  0.16273617    -0.78600
Zn30       Zn  0.46913206  0.46869268  0.21925012     1.55700
O31         O  0.08811889  0.47762116  0.27279474    -0.80000
Cd32       Cd  0.03226699  0.03195107  0.21852615     1.59700
Cd33       Cd  0.46764672  0.03206623  0.28303672     1.59600
O34         O  0.02204426  0.08769514  0.22878901    -0.80000
O35         O  0.49991726  0.49970085  0.25057792    -1.90500
Cd36       Cd  0.03230486  0.46765526  0.28306248     1.59900
O37         O  0.47781526  0.08787696  0.27286809    -0.80000
O38         O  0.02258425  0.41187141  0.27350799    -0.78600
C39         C  0.39604162  0.50015501  0.25098320     0.83900
C40         C  0.50056511  0.50060158  0.14652667     0.83600
O41         O  0.47931476  0.41407584  0.22938355    -0.77600
C42         C  0.10520722  0.99967640  0.25074682     0.84400
O43         O  0.41449367  0.47864285  0.22934656    -0.77700
C44         C  0.00000860  0.10491532  0.25092205     0.84500
C45         C  0.00004977  0.00015432  0.35597886     0.84800
O46         O  0.47766720  0.02201987  0.33894819    -0.80100
O47         O  0.47936563  0.22937650  0.41420936    -0.77600
C48         C  0.50066615  0.14644642  0.50086979     0.83400
O49         O  0.41195362  0.27309379  0.02242822    -0.78700
O50         O  0.02229639  0.22873150  0.08799621    -0.80200
O51         O  0.08800945  0.27255101  0.47783628    -0.80000
O52         O  0.02247023  0.27344789  0.41214761    -0.78600
Zn53       Zn  0.46922937  0.21926126  0.46880904     1.55700
O54         O  0.08824885  0.22838756  0.02193501    -0.80000
Cd55       Cd  0.03217107  0.28287661  0.46793349     1.59700
Cd56       Cd  0.46760626  0.28299004  0.03222176     1.59600
O57         O  0.02210086  0.33873634  0.47833772    -0.80000
O58         O  0.49995894  0.25046845  0.49995908    -1.90500
Cd59       Cd  0.03249559  0.21835371  0.03226968     1.59900
O60         O  0.47762643  0.33892704  0.02223291    -0.80000
O61         O  0.02272583  0.16254613  0.02295818    -0.78600
C62         C  0.39608209  0.25084045  0.50027802     0.83900
C63         C  0.50064188  0.25117633  0.39597309     0.83600
O64         O  0.47922624  0.16453641  0.47898982    -0.77600
C65         C  0.10526336  0.25051724  0.99990890     0.84400
O66         O  0.41458677  0.22930012  0.47871782    -0.77700
C67         C  0.99999713  0.35586342  0.00044200     0.84500
C68         C  0.00009127  0.25079868  0.10513478     0.84800
O69         O  0.47777172  0.27272422  0.08802235    -0.80100
O70         O  0.02170385  0.33654616  0.27212443    -0.77600
C71         C  0.99999247  0.25058302  0.35509150     0.83400
O72         O  0.08834216  0.22787009  0.22816968    -0.78700
O73         O  0.47840050  0.16304792  0.27339912    -0.80200
O74         O  0.41205522  0.27282816  0.22872513    -0.80000
O75         O  0.47759520  0.33881637  0.22883281    -0.78600
Zn76       Zn  0.03183332  0.28190408  0.28216987     1.55700
O77         O  0.41222277  0.22865603  0.27286627    -0.80000
Cd78       Cd  0.46792984  0.28309773  0.21901454     1.59700
Cd79       Cd  0.03250595  0.21850504  0.21878630     1.59600
O80         O  0.47824183  0.27314585  0.16319016    -0.80000
O81         O  0.00052008  0.25102665  0.25123524    -1.90500
Cd82       Cd  0.46808487  0.21888138  0.28326461     1.59900
O83         O  0.02233561  0.22875980  0.16305464    -0.80000
O84         O  0.47768791  0.22874586  0.33896660    -0.78600
C85         C  0.10454812  0.24998871  0.25014899     0.83900
C86         C  0.99994427  0.35488221  0.25071062     0.83600
O87         O  0.02175401  0.27188027  0.33682029    -0.77600
C88         C  0.39511689  0.25050013  0.25054927     0.84400
O89         O  0.08655177  0.27172027  0.27190658    -0.77700
C90         C  0.50023706  0.25092608  0.14598862     0.84500
C91         C  0.50022976  0.14577314  0.25110991     0.84800
O92         O  0.02222560  0.16276711  0.22894172    -0.80100
O93         O  0.27223073  0.08635737  0.02197773    -0.77600
C94         C  0.25092369  0.99958452  0.10483714     0.83400
O95         O  0.33949176  0.47800241  0.47837554    -0.78700
O96         O  0.22943631  0.41212849  0.02242497    -0.80200
O97         O  0.16334776  0.02258466  0.47876378    -0.80000
O98         O  0.22909577  0.08824701  0.47763253    -0.78600
Zn99       Zn  0.28228224  0.03165330  0.03219049     1.55700
O100        O  0.16347664  0.47844614  0.02289972    -0.80000
Cd101      Cd  0.21917163  0.03246092  0.46836047     1.59700
Cd102      Cd  0.28389273  0.46804476  0.46846031     1.59600
O103        O  0.22923247  0.02207831  0.41251085    -0.80000
O104        O  0.25157743  0.00043282  0.00087542    -1.90500
Cd105      Cd  0.21931487  0.46798117  0.03285687     1.59900
O106        O  0.27395085  0.47823714  0.41250837    -0.80000
O107        O  0.22914077  0.47733160  0.08863349    -0.78600
C108        C  0.35537967  0.00020833  0.00056262     0.83900
C109        C  0.25096669  0.10439228  0.99988039     0.83600
O110        O  0.27221232  0.02154356  0.08687295    -0.77600
C111        C  0.14626918  0.50050641  0.50080325     0.84400
O112        O  0.33690984  0.02169487  0.02220442    -0.77700
C113        C  0.25152419  0.50006603  0.39547259     0.84500
C114        C  0.25155298  0.39504938  0.50029258     0.84800
O115        O  0.27386565  0.41205071  0.47847489    -0.80100
O116        O  0.27201874  0.08598821  0.27161714    -0.77600
C117        C  0.25097237  0.99950981  0.35483124     0.83400
O118        O  0.33922971  0.47708075  0.22827514    -0.78700
O119        O  0.22906673  0.41180626  0.27267232    -0.80200
O120        O  0.16309627  0.02174882  0.22868492    -0.80000
O121        O  0.22828389  0.08782629  0.22787316    -0.78600
Zn122      Zn  0.28217369  0.03125032  0.28191115     1.55700
O123        O  0.16327366  0.47803021  0.27323391    -0.80000
Cd124      Cd  0.21882777  0.03199231  0.21840068     1.59700
Cd125      Cd  0.28350676  0.46749355  0.21839495     1.59600
O126        O  0.22907038  0.02193934  0.16254181    -0.80000
O127        O  0.25131914  0.99998912  0.25085364    -1.90500
Cd128      Cd  0.21910336  0.46769257  0.28308538     1.59900
O129        O  0.27362686  0.47792979  0.16247610    -0.80000
O130        O  0.22904023  0.47726641  0.33881308    -0.78600
C131        C  0.35518841  0.99938305  0.25031710     0.83900
C132        C  0.25037892  0.10401073  0.24986297     0.83600
O133        O  0.27229058  0.02129054  0.33667699    -0.77600
C134        C  0.14605573  0.49982692  0.25090545     0.84400
O135        O  0.33676511  0.02107569  0.27179979    -0.77700
C136        C  0.25133741  0.49992951  0.14547537     0.84500
C137        C  0.25083590  0.39465747  0.25025264     0.84800
O138        O  0.27303138  0.41157127  0.22824393    -0.80100
O139        O  0.27228317  0.33615383  0.02159545    -0.77600
C140        C  0.25044919  0.24958308  0.10426536     0.83400
O141        O  0.33932401  0.22787635  0.47731812    -0.78700
O142        O  0.22929935  0.16221775  0.02218245    -0.80200
O143        O  0.16320158  0.27286254  0.47812777    -0.80000
O144        O  0.22902464  0.33844285  0.47738588    -0.78600
Zn145      Zn  0.28221112  0.28138652  0.03158435     1.55700
O146        O  0.16330011  0.22844258  0.02197776    -0.80000
Cd147      Cd  0.21905367  0.28268420  0.46781672     1.59700
Cd148      Cd  0.28361489  0.21789235  0.46772029     1.59600
O149        O  0.22907660  0.27233334  0.41194084    -0.80000
O150        O  0.25140246  0.25039798  0.00019400    -1.90500
Cd151      Cd  0.21903104  0.21807721  0.03220018     1.59900
O152        O  0.27322510  0.22789061  0.41180885    -0.80000
O153        O  0.22841924  0.22762412  0.08800996    -0.78600
C154        C  0.35523806  0.24996141  0.99961540     0.83900
C155        C  0.25098587  0.35439227  0.99969548     0.83600
O156        O  0.27211678  0.27119521  0.08631990    -0.77600
C157        C  0.14611861  0.25062952  0.50000296     0.84400
O158        O  0.33678114  0.27131237  0.02140518    -0.77700
C159        C  0.25098684  0.24998027  0.39484586     0.84500
C160        C  0.25144092  0.14504459  0.50015746     0.84800
O161        O  0.27366270  0.16194229  0.47815636    -0.80100
O162        O  0.27150516  0.33579527  0.27150258    -0.77600
C163        C  0.25031309  0.24944199  0.35421111     0.83400
O164        O  0.33873528  0.22742364  0.22771204    -0.78700
O165        O  0.22855432  0.16185252  0.27216257    -0.80200
O166        O  0.16216886  0.27236647  0.22829330    -0.80000
O167        O  0.22811326  0.33804548  0.22743158    -0.78600
Zn168      Zn  0.28154328  0.28115125  0.28141745     1.55700
O169        O  0.16232245  0.22823052  0.27252466    -0.80000
Cd170      Cd  0.21811732  0.28222699  0.21789344     1.59700
Cd171      Cd  0.28302445  0.21755407  0.21788794     1.59600
O172        O  0.22846658  0.27194267  0.16199024    -0.80000
O173        O  0.25060325  0.25002155  0.25025400    -1.90500
Cd174      Cd  0.21823682  0.21776520  0.28241810     1.59900
O175        O  0.27303947  0.22790500  0.16195186    -0.80000
O176        O  0.22820977  0.22736219  0.33818730    -0.78600
C177        C  0.35452333  0.24973215  0.24982506     0.83900
C178        C  0.25014638  0.35401098  0.24967023     0.83600
O179        O  0.27174272  0.27109922  0.33606909    -0.77600
C180        C  0.14520571  0.25030664  0.25041361     0.85200
O181        O  0.33617079  0.27132351  0.27138956    -0.77700
C182        C  0.25076635  0.24992218  0.14493291     0.84500
C183        C  0.25076056  0.14468738  0.25016374     0.84800
O184        O  0.27301938  0.16160376  0.22821251    -0.80100
O185        O  0.47899024  0.47927569  0.91473554    -0.77600
C186        C  0.50059837  0.39649690  0.00102369     0.83400
O187        O  0.41217887  0.02326132  0.52331713    -0.78700
O188        O  0.02214930  0.47813270  0.58875319    -0.80200
O189        O  0.08818268  0.02242959  0.97853683    -0.80000
O190        O  0.02269416  0.02283244  0.91264071    -0.78600
Zn191      Zn  0.46912232  0.46939931  0.96940897     1.55700
O192        O  0.08831198  0.47830807  0.52268769    -0.80000
Cd193      Cd  0.03234640  0.03269101  0.96838700     1.59700
Cd194      Cd  0.46790690  0.03300195  0.53301123     1.59600
O195        O  0.02204934  0.08859107  0.97833185    -0.80000
O196        O  0.50006278  0.50046059  0.00055866    -1.90500
Cd197      Cd  0.03248679  0.46821302  0.53286778     1.59900
O198        O  0.47806054  0.08892708  0.52273952    -0.80000
O199        O  0.02277999  0.41245230  0.52310267    -0.78600
C200        C  0.39621299  0.50105344  0.00118843     0.83900
C201        C  0.50058802  0.50077226  0.89660602     0.83600
O202        O  0.47903182  0.41471404  0.97939204    -0.77600
C203        C  0.10539003  0.00041676  0.50067889     0.84400
O204        O  0.41461518  0.47951337  0.97955499    -0.77700
C205        C  0.00012806  0.10579427  0.50055901     0.84500
C206        C  0.00010472  0.00033152  0.60587449     0.84800
O207        O  0.47802094  0.02259740  0.58892562    -0.80100
O208        O  0.47907496  0.47885008  0.66450801    -0.77600
C209        C  0.50065605  0.39576850  0.75123346     0.83400
O210        O  0.41197233  0.02232733  0.77317201    -0.78700
O211        O  0.02222785  0.47801621  0.83894658    -0.80200
O212        O  0.08803122  0.02164934  0.72856357    -0.80000
O213        O  0.02258794  0.02260114  0.66273629    -0.78600
Zn214      Zn  0.46913211  0.46869270  0.71925025     1.55700
O215        O  0.08811888  0.47762112  0.77279468    -0.80000
Cd216      Cd  0.03226680  0.03195107  0.71852631     1.59700
Cd217      Cd  0.46764656  0.03206624  0.78303662     1.59600
O218        O  0.02204414  0.08769516  0.72878886    -0.80000
O219        O  0.49991728  0.49970086  0.75057803    -1.90500
Cd220      Cd  0.03230471  0.46765527  0.78306242     1.59900
O221        O  0.47781526  0.08787697  0.77286804    -0.80000
O222        O  0.02258419  0.41187143  0.77350798    -0.78600
C223        C  0.39604162  0.50015497  0.75098312     0.83900
C224        C  0.50056504  0.50060160  0.64652675     0.83600
O225        O  0.47931453  0.41407583  0.72938363    -0.77600
C226        C  0.10520716  0.99967638  0.75074680     0.84400
O227        O  0.41449367  0.47864283  0.72934649    -0.77700
C228        C  0.00000858  0.10491534  0.75092197     0.84500
C229        C  0.00004969  0.00015434  0.85597885     0.84800
O230        O  0.47766717  0.02201994  0.83894813    -0.80100
O231        O  0.47936566  0.22937639  0.91420939    -0.77600
C232        C  0.50066612  0.14644645  0.00086987     0.83400
O233        O  0.41195363  0.27309378  0.52242810    -0.78700
O234        O  0.02229645  0.22873151  0.58799616    -0.80200
O235        O  0.08800942  0.27255105  0.97783639    -0.80000
O236        O  0.02247014  0.27344789  0.91214752    -0.78600
Zn237      Zn  0.46922944  0.21926127  0.96880919     1.55700
O238        O  0.08824879  0.22838754  0.52193491    -0.80000
Cd239      Cd  0.03217111  0.28287662  0.96793341     1.59700
Cd240      Cd  0.46760631  0.28299005  0.53222165     1.59600
O241        O  0.02210069  0.33873634  0.97833759    -0.80000
O242        O  0.49995903  0.25046852  0.99995919    -1.90500
Cd243      Cd  0.03249564  0.21835351  0.53226958     1.59900
O244        O  0.47762646  0.33892705  0.52223285    -0.80000
O245        O  0.02272581  0.16254605  0.52295819    -0.78600
C246        C  0.39608212  0.25084049  0.00027815     0.83900
C247        C  0.50064184  0.25117621  0.89597308     0.83600
O248        O  0.47922619  0.16453643  0.97898992    -0.77600
C249        C  0.10526335  0.25051720  0.49990884     0.84400
O250        O  0.41458685  0.22930013  0.97871797    -0.77700
C251        C  0.99999724  0.35586343  0.50044204     0.84500
C252        C  0.00009133  0.25079870  0.60513475     0.84800
O253        O  0.47777180  0.27272417  0.58802229    -0.80100
O254        O  0.02170383  0.33654619  0.77212451    -0.77600
C255        C  0.99999240  0.25058300  0.85509150     0.83400
O256        O  0.08834224  0.22787012  0.72816962    -0.78700
O257        O  0.47840059  0.16304792  0.77339921    -0.80200
O258        O  0.41205518  0.27282823  0.72872521    -0.80000
O259        O  0.47759528  0.33881635  0.72883272    -0.78600
Zn260      Zn  0.03183317  0.28190410  0.78217000     1.55700
O261        O  0.41222273  0.22865597  0.77286624    -0.80000
Cd262      Cd  0.46792969  0.28309774  0.71901446     1.59700
Cd263      Cd  0.03250602  0.21850505  0.71878622     1.59600
O264        O  0.47824185  0.27314589  0.66319018    -0.80000
O265        O  0.00052006  0.25102667  0.75123519    -1.90500
Cd266      Cd  0.46808491  0.21888140  0.78326474     1.59900
O267        O  0.02233552  0.22875976  0.66305470    -0.80000
O268        O  0.47768779  0.22874588  0.83896660    -0.78600
C269        C  0.10454816  0.24998873  0.75014897     0.83900
C270        C  0.99994433  0.35488222  0.75071057     0.83600
O271        O  0.02175388  0.27188029  0.83682034    -0.77600
C272        C  0.39511687  0.25050016  0.75054932     0.84400
O273        O  0.08655177  0.27172029  0.77190656    -0.77700
C274        C  0.50023705  0.25092607  0.64598867     0.84500
C275        C  0.50022972  0.14577316  0.75110988     0.84800
O276        O  0.02222562  0.16276713  0.72894165    -0.80100
O277        O  0.27223056  0.08635737  0.52197790    -0.77600
C278        C  0.25092367  0.99958455  0.60483703     0.83400
O279        O  0.33949179  0.47800246  0.97837544    -0.78700
O280        O  0.22943638  0.41212850  0.52242508    -0.80200
O281        O  0.16334766  0.02258461  0.97876373    -0.80000
O282        O  0.22909560  0.08824702  0.97763270    -0.78600
Zn283      Zn  0.28228230  0.03165332  0.53219042     1.55700
O284        O  0.16347664  0.47844612  0.52289967    -0.80000
Cd285      Cd  0.21917165  0.03246093  0.96836061     1.59700
Cd286      Cd  0.28389279  0.46804477  0.96846021     1.59600
O287        O  0.22923240  0.02207825  0.91251091    -0.80000
O288        O  0.25157740  0.00043285  0.50087546    -1.90500
Cd289      Cd  0.21931493  0.46798119  0.53285679     1.59900
O290        O  0.27395094  0.47823715  0.91250827    -0.80000
O291        O  0.22914083  0.47733162  0.58863339    -0.78600
C292        C  0.35537968  0.00020834  0.50056265     0.83900
C293        C  0.25096666  0.10439227  0.49988042     0.83600
O294        O  0.27221234  0.02154356  0.58687284    -0.77600
C295        C  0.14626920  0.50050638  0.00080324     0.84400
O296        O  0.33690987  0.02169494  0.52220437    -0.77700
C297        C  0.25152426  0.50006607  0.89547256     0.84500
C298        C  0.25155297  0.39504935  0.00029251     0.84800
O299        O  0.27386568  0.41205069  0.97847486    -0.80100
O300        O  0.27201873  0.08598820  0.77161717    -0.77600
C301        C  0.25097233  0.99950986  0.85483119     0.83400
O302        O  0.33922975  0.47708075  0.72827502    -0.78700
O303        O  0.22906675  0.41180627  0.77267227    -0.80200
O304        O  0.16309621  0.02174884  0.72868497    -0.80000
O305        O  0.22828371  0.08782630  0.72787331    -0.78600
Zn306      Zn  0.28217374  0.03125033  0.78191104     1.55700
O307        O  0.16327374  0.47803015  0.77323388    -0.80000
Cd308      Cd  0.21882759  0.03199233  0.71840059     1.59700
Cd309      Cd  0.28350682  0.46749356  0.71839485     1.59600
O310        O  0.22907038  0.02193942  0.66254171    -0.80000
O311        O  0.25131905  0.99998914  0.75085355    -1.90500
Cd312      Cd  0.21910343  0.46769259  0.78308550     1.59900
O313        O  0.27362693  0.47792980  0.66247599    -0.80000
O314        O  0.22904029  0.47726644  0.83881307    -0.78600
C315        C  0.35518847  0.99938307  0.75031698     0.83900
C316        C  0.25037884  0.10401072  0.74986308     0.83600
O317        O  0.27229062  0.02129049  0.83667690    -0.77600
C318        C  0.14605579  0.49982692  0.75090541     0.84400
O319        O  0.33676517  0.02107570  0.77179968    -0.77700
C320        C  0.25133748  0.49992953  0.64547526     0.84500
C321        C  0.25083596  0.39465749  0.75025263     0.84800
O322        O  0.27303152  0.41157131  0.72824399    -0.80100
O323        O  0.27228316  0.33615389  0.52159555    -0.77600
C324        C  0.25044923  0.24958304  0.60426531     0.83400
O325        O  0.33932405  0.22787636  0.97731824    -0.78700
O326        O  0.22929943  0.16221776  0.52218256    -0.80200
O327        O  0.16320158  0.27286254  0.97812761    -0.80000
O328        O  0.22902445  0.33844276  0.97738597    -0.78600
Zn329      Zn  0.28221117  0.28138653  0.53158426     1.55700
O330        O  0.16330011  0.22844247  0.52197781    -0.80000
Cd331      Cd  0.21905372  0.28268399  0.96781664     1.59700
Cd332      Cd  0.28361496  0.21789236  0.96772023     1.59600
O333        O  0.22907666  0.27233335  0.91194080    -0.80000
O334        O  0.25140246  0.25039806  0.50019393    -1.90500
Cd335      Cd  0.21903111  0.21807722  0.53220010     1.59900
O336        O  0.27322515  0.22789064  0.91180889    -0.80000
O337        O  0.22841930  0.22762408  0.58800990    -0.78600
C338        C  0.35523803  0.24996134  0.49961535     0.83900
C339        C  0.25098592  0.35439233  0.49969554     0.83600
O340        O  0.27211670  0.27119527  0.58631981    -0.77600
C341        C  0.14611860  0.25062958  0.00000288     0.84400
O342        O  0.33678114  0.27131222  0.52140518    -0.77700
C343        C  0.25098689  0.24998027  0.89484587     0.84500
C344        C  0.25144093  0.14504459  0.00015740     0.84800
O345        O  0.27366274  0.16194229  0.97815633    -0.80100
O346        O  0.27150529  0.33579529  0.77150250    -0.77600
C347        C  0.25031305  0.24944196  0.85421111     0.83400
O348        O  0.33873531  0.22742372  0.72771199    -0.78700
O349        O  0.22855430  0.16185255  0.77216255    -0.80200
O350        O  0.16216892  0.27236643  0.72829324    -0.80000
O351        O  0.22811326  0.33804548  0.72743162    -0.78600
Zn352      Zn  0.28154329  0.28115126  0.78141736     1.55700
O353        O  0.16232244  0.22823059  0.77252475    -0.80000
Cd354      Cd  0.21811737  0.28222700  0.71789334     1.59700
Cd355      Cd  0.28302451  0.21755407  0.71788788     1.59600
O356        O  0.22846658  0.27194255  0.66199020    -0.80000
O357        O  0.25060314  0.25002153  0.75025395    -1.90500
Cd358      Cd  0.21823665  0.21776522  0.78241824     1.59900
O359        O  0.27303957  0.22790500  0.66195188    -0.80000
O360        O  0.22820965  0.22736222  0.83818737    -0.78600
C361        C  0.35452331  0.24973218  0.74982509     0.83900
C362        C  0.25014646  0.35401100  0.74967021     0.83600
O363        O  0.27174260  0.27109924  0.83606902    -0.77600
C364        C  0.14520575  0.25030666  0.75041361     0.85200
O365        O  0.33617074  0.27132345  0.77138964    -0.77700
C366        C  0.25076641  0.24992212  0.64493289     0.84500
C367        C  0.25076058  0.14468736  0.75016380     0.84800
O368        O  0.27301951  0.16160365  0.72821260    -0.80100
O369        O  0.47899019  0.97927581  0.41473560    -0.77600
C370        C  0.50059846  0.89649688  0.50102375     0.83400
O371        O  0.41217885  0.52326128  0.02331714    -0.78700
O372        O  0.02214930  0.97813278  0.08875304    -0.80200
O373        O  0.08818270  0.52242964  0.47853674    -0.80000
O374        O  0.02269417  0.52283248  0.41264070    -0.78600
Zn375      Zn  0.46912232  0.96939941  0.46940908     1.55700
O376        O  0.08831198  0.97830807  0.02268781    -0.80000
Cd377      Cd  0.03234639  0.53269086  0.46838687     1.59700
Cd378      Cd  0.46790690  0.53300181  0.03301108     1.59600
O379        O  0.02204931  0.58859093  0.47833175    -0.80000
O380        O  0.50006286  0.00046072  0.50055880    -1.90500
Cd381      Cd  0.03248677  0.96821288  0.03286762     1.59900
O382        O  0.47806063  0.58892703  0.02273970    -0.80000
O383        O  0.02278003  0.91245215  0.02310260    -0.78600
C384        C  0.39621300  0.00105347  0.50118843     0.83900
C385        C  0.50058805  0.00077229  0.39660605     0.83600
O386        O  0.47903188  0.91471408  0.47939217    -0.77600
C387        C  0.10539000  0.50041672  0.00067897     0.84400
O388        O  0.41461519  0.97951341  0.47955499    -0.77700
C389        C  0.00012805  0.60579420  0.00055909     0.84500
C390        C  0.00010463  0.50033150  0.10587439     0.84800
O391        O  0.47802097  0.52259740  0.08892550    -0.80100
O392        O  0.47907501  0.97885008  0.16450797    -0.77600
C393        C  0.50065600  0.89576856  0.25123346     0.83400
O394        O  0.41197231  0.52232721  0.27317211    -0.78700
O395        O  0.02222779  0.97801620  0.33894655    -0.80200
O396        O  0.08803127  0.52164946  0.22856359    -0.80000
O397        O  0.02258795  0.52260117  0.16273615    -0.78600
Zn398      Zn  0.46913210  0.96869279  0.21925012     1.55700
O399        O  0.08811899  0.97762102  0.27279472    -0.80000
Cd400      Cd  0.03226700  0.53195118  0.21852615     1.59700
Cd401      Cd  0.46764655  0.53206608  0.28303672     1.59600
O402        O  0.02204417  0.58769515  0.22878893    -0.80000
O403        O  0.49991732  0.99970089  0.25057796    -1.90500
Cd404      Cd  0.03230491  0.96765514  0.28306248     1.59900
O405        O  0.47781526  0.58787683  0.27286813    -0.80000
O406        O  0.02258414  0.91187145  0.27350803    -0.78600
C407        C  0.39604164  0.00015507  0.25098320     0.83900
C408        C  0.50056507  0.00060157  0.14652667     0.83600
O409        O  0.47931457  0.91407592  0.22938355    -0.77600
C410        C  0.10520714  0.49967649  0.25074683     0.84400
O411        O  0.41449370  0.97864295  0.22934657    -0.77700
C412        C  0.00000859  0.60491526  0.25092206     0.84500
C413        C  0.00004973  0.50015434  0.35597886     0.84800
O414        O  0.47766710  0.52201984  0.33894819    -0.80100
O415        O  0.47936572  0.72937636  0.41420936    -0.77600
C416        C  0.50066622  0.64644638  0.50086977     0.83400
O417        O  0.41195364  0.77309389  0.02242817    -0.78700
O418        O  0.02229650  0.72873157  0.08799621    -0.80200
O419        O  0.08800947  0.77255094  0.47783627    -0.80000
O420        O  0.02247007  0.77344799  0.41214761    -0.78600
Zn421      Zn  0.46922943  0.71926135  0.46880904     1.55700
O422        O  0.08824880  0.72838763  0.02193505    -0.80000
Cd423      Cd  0.03217111  0.78287670  0.46793349     1.59700
Cd424      Cd  0.46760629  0.78299014  0.03222176     1.59600
O425        O  0.02210074  0.83873629  0.47833771    -0.80000
O426        O  0.49995900  0.75046857  0.49995907    -1.90500
Cd427      Cd  0.03249562  0.71835359  0.03226967     1.59900
O428        O  0.47762649  0.83892702  0.02223291    -0.80000
O429        O  0.02272591  0.66254600  0.02295819    -0.78600
C430        C  0.39608214  0.75084051  0.50027802     0.83900
C431        C  0.50064184  0.75117626  0.39597309     0.83600
O432        O  0.47922632  0.66453646  0.47898984    -0.77600
C433        C  0.10526334  0.75051726  0.99990888     0.84400
O434        O  0.41458681  0.72930010  0.47871788    -0.77700
C435        C  0.99999716  0.85586338  0.00044197     0.84500
C436        C  0.00009134  0.75079873  0.10513478     0.84800
O437        O  0.47777172  0.77272413  0.08802233    -0.80100
O438        O  0.02170389  0.83654628  0.27212445    -0.77600
C439        C  0.99999238  0.75058302  0.35509150     0.83400
O440        O  0.08834222  0.72787014  0.22816967    -0.78700
O441        O  0.47840050  0.66304783  0.27339914    -0.80200
O442        O  0.41205519  0.77282809  0.22872508    -0.80000
O443        O  0.47759523  0.83881629  0.22883281    -0.78600
Zn444      Zn  0.03183316  0.78190419  0.28216987     1.55700
O445        O  0.41222270  0.72865608  0.27286633    -0.80000
Cd446      Cd  0.46792968  0.78309759  0.21901453     1.59700
Cd447      Cd  0.03250600  0.71850491  0.21878630     1.59600
O448        O  0.47824178  0.77314583  0.16319015    -0.80000
O449        O  0.00052008  0.75102664  0.25123523    -1.90500
Cd450      Cd  0.46808490  0.71888126  0.28326461     1.59900
O451        O  0.02233557  0.72875980  0.16305466    -0.80000
O452        O  0.47768772  0.72874592  0.33896661    -0.78600
C453        C  0.10454815  0.74998877  0.25014901     0.83900
C454        C  0.99994429  0.85488226  0.25071058     0.83600
O455        O  0.02175391  0.77188023  0.33682027    -0.77600
C456        C  0.39511685  0.75050019  0.25054931     0.84400
O457        O  0.08655177  0.77172033  0.27190657    -0.77700
C458        C  0.50023706  0.75092609  0.14598862     0.84500
C459        C  0.50022970  0.64577305  0.25110993     0.84800
O460        O  0.02222565  0.66276700  0.22894173    -0.80100
O461        O  0.27223058  0.58635743  0.02197778    -0.77600
C462        C  0.25092366  0.49958454  0.10483714     0.83400
O463        O  0.33949179  0.97800246  0.47837549    -0.78700
O464        O  0.22943633  0.91212846  0.02242505    -0.80200
O465        O  0.16334766  0.52258476  0.47876384    -0.80000
O466        O  0.22909583  0.58824709  0.47763252    -0.78600
Zn467      Zn  0.28228228  0.53165342  0.03219050     1.55700
O468        O  0.16347667  0.97844619  0.02289977    -0.80000
Cd469      Cd  0.21917165  0.53246102  0.46836048     1.59700
Cd470      Cd  0.28389278  0.96804486  0.46846031     1.59600
O471        O  0.22923234  0.52207822  0.41251087    -0.80000
O472        O  0.25157744  0.50043287  0.00087544    -1.90500
Cd473      Cd  0.21931491  0.96798126  0.03285688     1.59900
O474        O  0.27395091  0.97823717  0.41250839    -0.80000
O475        O  0.22914076  0.97733162  0.08863351    -0.78600
C476        C  0.35537967  0.50020835  0.00056262     0.83900
C477        C  0.25096661  0.60439236  0.99988040     0.83600
O478        O  0.27221229  0.52154362  0.08687296    -0.77600
C479        C  0.14626922  0.00050639  0.50080322     0.84400
O480        O  0.33690987  0.52169496  0.02220436    -0.77700
C481        C  0.25152423  0.00006602  0.39547259     0.84500
C482        C  0.25155295  0.89504936  0.50029256     0.84800
O483        O  0.27386563  0.91205076  0.47847491    -0.80100
O484        O  0.27201876  0.58598821  0.27161714    -0.77600
C485        C  0.25097235  0.49950992  0.35483123     0.83400
O486        O  0.33922976  0.97708068  0.22827521    -0.78700
O487        O  0.22906678  0.91180637  0.27267231    -0.80200
O488        O  0.16309623  0.52174869  0.22868489    -0.80000
O489        O  0.22828386  0.58782632  0.22787317    -0.78600
Zn490      Zn  0.28217374  0.53125021  0.28191114     1.55700
O491        O  0.16327375  0.97803032  0.27323392    -0.80000
Cd492      Cd  0.21882760  0.53199219  0.21840069     1.59700
Cd493      Cd  0.28350682  0.96749344  0.21839495     1.59600
O494        O  0.22907042  0.52193939  0.16254182    -0.80000
O495        O  0.25131905  0.49998905  0.25085365    -1.90500
Cd496      Cd  0.21910342  0.96769269  0.28308538     1.59900
O497        O  0.27362697  0.97792987  0.16247612    -0.80000
O498        O  0.22904027  0.97726627  0.33881309    -0.78600
C499        C  0.35518840  0.49938301  0.25031708     0.83900
C500        C  0.25037890  0.60401074  0.24986302     0.83600
O501        O  0.27229061  0.52129061  0.33667700    -0.77600
C502        C  0.14605579  0.99982699  0.25090546     0.84400
O503        O  0.33676514  0.52107559  0.27179987    -0.77700
C504        C  0.25133744  0.99992951  0.14547538     0.84500
C505        C  0.25083592  0.89465755  0.25025262     0.84800
O506        O  0.27303143  0.91157131  0.22824392    -0.80100
O507        O  0.27228323  0.83615376  0.02159544    -0.77600
C508        C  0.25044918  0.74958297  0.10426537     0.83400
O509        O  0.33932406  0.72787643  0.47731812    -0.78700
O510        O  0.22929940  0.66221789  0.02218245    -0.80200
O511        O  0.16320158  0.77286258  0.47812777    -0.80000
O512        O  0.22902454  0.83844274  0.47738593    -0.78600
Zn513      Zn  0.28221117  0.78138639  0.03158435     1.55700
O514        O  0.16330014  0.72844249  0.02197770    -0.80000
Cd515      Cd  0.21905371  0.78268407  0.46781672     1.59700
Cd516      Cd  0.28361496  0.71789224  0.46772029     1.59600
O517        O  0.22907659  0.77233328  0.41194087    -0.80000
O518        O  0.25140252  0.75039802  0.00019397    -1.90500
Cd519      Cd  0.21903110  0.71807731  0.03220018     1.59900
O520        O  0.27322520  0.72789067  0.41180883    -0.80000
O521        O  0.22841927  0.72762395  0.08801001    -0.78600
C522        C  0.35523809  0.74996144  0.99961538     0.83900
C523        C  0.25098594  0.85439225  0.99969547     0.83600
O524        O  0.27211668  0.77119513  0.08631985    -0.77600
C525        C  0.14611862  0.75062951  0.50000298     0.84400
O526        O  0.33678117  0.77131230  0.02140525    -0.77700
C527        C  0.25098688  0.74998030  0.39484586     0.84500
C528        C  0.25144097  0.64504465  0.50015747     0.84800
O529        O  0.27366276  0.66194232  0.47815636    -0.80100
O530        O  0.27150524  0.83579538  0.27150259    -0.77600
C531        C  0.25031302  0.74944207  0.35421110     0.83400
O532        O  0.33873531  0.72742370  0.22771197    -0.78700
O533        O  0.22855435  0.66185247  0.27216263    -0.80200
O534        O  0.16216889  0.77236658  0.22829331    -0.80000
O535        O  0.22811334  0.83804550  0.22743159    -0.78600
Zn536      Zn  0.28154328  0.78115134  0.28141744     1.55700
O537        O  0.16232253  0.72823059  0.27252465    -0.80000
Cd538      Cd  0.21811737  0.78222708  0.21789344     1.59700
Cd539      Cd  0.28302450  0.71755395  0.21788795     1.59600
O540        O  0.22846658  0.77194262  0.16199024    -0.80000
O541        O  0.25060319  0.75002148  0.25025399    -1.90500
Cd542      Cd  0.21823686  0.71776507  0.28241811     1.59900
O543        O  0.27303958  0.72790505  0.16195188    -0.80000
O544        O  0.22820965  0.72736230  0.33818732    -0.78600
C545        C  0.35452329  0.74973221  0.24982504     0.83900
C546        C  0.25014643  0.85401105  0.24967024     0.83600
O547        O  0.27174260  0.77109935  0.33606905    -0.77600
C548        C  0.14520576  0.75030673  0.25041362     0.85200
O549        O  0.33617070  0.77132345  0.27138961    -0.77700
C550        C  0.25076639  0.74992215  0.14493292     0.84500
C551        C  0.25076059  0.64468734  0.25016380     0.84800
O552        O  0.27301943  0.66160367  0.22821255    -0.80100
O553        O  0.47899021  0.97927577  0.91473554    -0.77600
C554        C  0.50059842  0.89649687  0.00102368     0.83400
O555        O  0.41217884  0.52326132  0.52331708    -0.78700
O556        O  0.02214938  0.97813280  0.58875318    -0.80200
O557        O  0.08818273  0.52242968  0.97853686    -0.80000
O558        O  0.02269415  0.52283242  0.91264071    -0.78600
Zn559      Zn  0.46912235  0.96939942  0.96940897     1.55700
O560        O  0.08831201  0.97830811  0.52268768    -0.80000
Cd561      Cd  0.03234645  0.53269087  0.96838700     1.59700
Cd562      Cd  0.46790674  0.53300183  0.53301122     1.59600
O563        O  0.02204938  0.58859094  0.97833186    -0.80000
O564        O  0.50006278  0.00046069  0.00055870    -1.90500
Cd565      Cd  0.03248684  0.96821290  0.53286777     1.59900
O566        O  0.47806053  0.58892706  0.52273957    -0.80000
O567        O  0.02278006  0.91245217  0.52310268    -0.78600
C568        C  0.39621296  0.00105348  0.00118845     0.83900
C569        C  0.50058798  0.00077233  0.89660602     0.83600
O570        O  0.47903190  0.91471408  0.97939207    -0.77600
C571        C  0.10538998  0.50041674  0.50067890     0.84400
O572        O  0.41461513  0.97951345  0.97955493    -0.77700
C573        C  0.00012802  0.60579420  0.50055900     0.84500
C574        C  0.00010468  0.50033148  0.60587450     0.84800
O575        O  0.47802100  0.52259743  0.58892560    -0.80100
O576        O  0.47907507  0.97885007  0.66450793    -0.77600
C577        C  0.50065603  0.89576856  0.75123344     0.83400
O578        O  0.41197233  0.52232719  0.77317202    -0.78700
O579        O  0.02222764  0.97801613  0.83894658    -0.80200
O580        O  0.08803128  0.52164943  0.72856355    -0.80000
O581        O  0.02258777  0.52260123  0.66273629    -0.78600
Zn582      Zn  0.46913217  0.96869280  0.71925003     1.55700
O583        O  0.08811893  0.97762101  0.77279469    -0.80000
Cd584      Cd  0.03226684  0.53195119  0.71852630     1.59700
Cd585      Cd  0.46764660  0.53206610  0.78303663     1.59600
O586        O  0.02204422  0.58769520  0.72878885    -0.80000
O587        O  0.49991729  0.99970082  0.75057800    -1.90500
Cd588      Cd  0.03230476  0.96765514  0.78306242     1.59900
O589        O  0.47781533  0.58787683  0.77286809    -0.80000
O590        O  0.02258420  0.91187146  0.77350790    -0.78600
C591        C  0.39604169  0.00015508  0.75098309     0.83900
C592        C  0.50056515  0.00060160  0.64652673     0.83600
O593        O  0.47931456  0.91407595  0.72938359    -0.77600
C594        C  0.10520717  0.49967641  0.75074681     0.84400
O595        O  0.41449377  0.97864297  0.72934646    -0.77700
C596        C  0.00000862  0.60491529  0.75092199     0.84500
C597        C  0.00004977  0.50015428  0.85597885     0.84800
O598        O  0.47766719  0.52201978  0.83894814    -0.80100
O599        O  0.47936562  0.72937642  0.91420936    -0.77600
C600        C  0.50066620  0.64644638  0.00086983     0.83400
O601        O  0.41195370  0.77309387  0.52242805    -0.78700
O602        O  0.02229636  0.72873154  0.58799614    -0.80200
O603        O  0.08800940  0.77255101  0.97783633    -0.80000
O604        O  0.02247009  0.77344794  0.91214754    -0.78600
Zn605      Zn  0.46922947  0.71926137  0.96880918     1.55700
O606        O  0.08824885  0.72838747  0.52193491    -0.80000
Cd607      Cd  0.03217094  0.78287671  0.96793341     1.59700
Cd608      Cd  0.46760636  0.78299015  0.53222165     1.59600
O609        O  0.02210072  0.83873632  0.97833759    -0.80000
O610        O  0.49995890  0.75046859  0.99995920    -1.90500
Cd611      Cd  0.03249568  0.71835359  0.53226958     1.59900
O612        O  0.47762634  0.83892706  0.52223284    -0.80000
O613        O  0.02272588  0.66254599  0.52295821    -0.78600
C614        C  0.39608214  0.75084053  0.00027813     0.83900
C615        C  0.50064182  0.75117626  0.89597308     0.83600
O616        O  0.47922628  0.66453646  0.97898994    -0.77600
C617        C  0.10526337  0.75051717  0.49990881     0.84400
O618        O  0.41458685  0.72930009  0.97871803    -0.77700
C619        C  0.99999714  0.85586339  0.50044203     0.84500
C620        C  0.00009126  0.75079874  0.60513475     0.84800
O621        O  0.47777180  0.77272414  0.58802228    -0.80100
O622        O  0.02170384  0.83654632  0.77212453    -0.77600
C623        C  0.99999244  0.75058302  0.85509150     0.83400
O624        O  0.08834209  0.72787018  0.72816964    -0.78700
O625        O  0.47840060  0.66304783  0.77339929    -0.80200
O626        O  0.41205520  0.77282816  0.72872514    -0.80000
O627        O  0.47759515  0.83881632  0.72883280    -0.78600
Zn628      Zn  0.03183321  0.78190420  0.78217000     1.55700
O629        O  0.41222273  0.72865603  0.77286630    -0.80000
Cd630      Cd  0.46792972  0.78309761  0.71901446     1.59700
Cd631      Cd  0.03250582  0.71850493  0.71878622     1.59600
O632        O  0.47824185  0.77314583  0.66319018    -0.80000
O633        O  0.00051999  0.75102667  0.75123522    -1.90500
Cd634      Cd  0.46808495  0.71888128  0.78326474     1.59900
O635        O  0.02233559  0.72875983  0.66305467    -0.80000
O636        O  0.47768779  0.72874595  0.83896660    -0.78600
C637        C  0.10454810  0.74998879  0.75014895     0.83900
C638        C  0.99994428  0.85488227  0.75071056     0.83600
O639        O  0.02175400  0.77188026  0.83682034    -0.77600
C640        C  0.39511685  0.75050019  0.75054933     0.84400
O641        O  0.08655180  0.77172037  0.77190656    -0.77700
C642        C  0.50023713  0.75092611  0.64598867     0.84500
C643        C  0.50022972  0.64577307  0.75110993     0.84800
O644        O  0.02222549  0.66276705  0.72894159    -0.80100
O645        O  0.27223061  0.58635745  0.52197790    -0.77600
C646        C  0.25092373  0.49958456  0.60483703     0.83400
O647        O  0.33949184  0.97800251  0.97837539    -0.78700
O648        O  0.22943634  0.91212847  0.52242510    -0.80200
O649        O  0.16334771  0.52258470  0.97876380    -0.80000
O650        O  0.22909559  0.58824712  0.97763263    -0.78600
Zn651      Zn  0.28228236  0.53165344  0.53219042     1.55700
O652        O  0.16347663  0.97844616  0.52289973    -0.80000
Cd653      Cd  0.21917170  0.53246104  0.96836061     1.59700
Cd654      Cd  0.28389284  0.96804488  0.96846021     1.59600
O655        O  0.22923243  0.52207822  0.91251094    -0.80000
O656        O  0.25157746  0.50043291  0.50087546    -1.90500
Cd657      Cd  0.21931476  0.96798127  0.53285679     1.59900
O658        O  0.27395096  0.97823724  0.91250830    -0.80000
O659        O  0.22914074  0.97733164  0.58863339    -0.78600
C660        C  0.35537969  0.50020836  0.50056265     0.83900
C661        C  0.25096671  0.60439235  0.49988042     0.83600
O662        O  0.27221236  0.52154363  0.58687286    -0.77600
C663        C  0.14626918  0.00050634  0.00080322     0.84400
O664        O  0.33690993  0.52169503  0.52220432    -0.77700
C665        C  0.25152422  0.00006606  0.89547256     0.84500
C666        C  0.25155297  0.89504937  0.00029252     0.84800
O667        O  0.27386557  0.91205079  0.97847480    -0.80100
O668        O  0.27201878  0.58598824  0.77161718    -0.77600
C669        C  0.25097239  0.49950997  0.85483119     0.83400
O670        O  0.33922982  0.97708070  0.72827509    -0.78700
O671        O  0.22906679  0.91180628  0.77267228    -0.80200
O672        O  0.16309629  0.52174873  0.72868496    -0.80000
O673        O  0.22828378  0.58782622  0.72787333    -0.78600
Zn674      Zn  0.28217358  0.53125023  0.78191105     1.55700
O675        O  0.16327376  0.97803023  0.77323387    -0.80000
Cd676      Cd  0.21882766  0.53199219  0.71840060     1.59700
Cd677      Cd  0.28350687  0.96749346  0.71839486     1.59600
O678        O  0.22907049  0.52193942  0.66254171    -0.80000
O679        O  0.25131906  0.49998904  0.75085357    -1.90500
Cd680      Cd  0.21910347  0.96769268  0.78308550     1.59900
O681        O  0.27362686  0.97792982  0.66247601    -0.80000
O682        O  0.22904018  0.97726636  0.83881309    -0.78600
C683        C  0.35518837  0.49938301  0.75031700     0.83900
C684        C  0.25037891  0.60401072  0.74986305     0.83600
O685        O  0.27229065  0.52129063  0.83667692    -0.77600
C686        C  0.14605577  0.99982694  0.75090543     0.84400
O687        O  0.33676503  0.52107558  0.77179973    -0.77700
C688        C  0.25133740  0.99992954  0.64547528     0.84500
C689        C  0.25083598  0.89465751  0.75025259     0.84800
O690        O  0.27303155  0.91157133  0.72824399    -0.80100
O691        O  0.27228319  0.83615379  0.52159550    -0.77600
C692        C  0.25044919  0.74958296  0.60426532     0.83400
O693        O  0.33932410  0.72787643  0.97731818    -0.78700
O694        O  0.22929948  0.66221786  0.52218256    -0.80200
O695        O  0.16320162  0.77286257  0.97812768    -0.80000
O696        O  0.22902452  0.83844275  0.97738596    -0.78600
Zn697      Zn  0.28221123  0.78138641  0.53158426     1.55700
O698        O  0.16330014  0.72844253  0.52197781    -0.80000
Cd699      Cd  0.21905378  0.78268409  0.96781664     1.59700
Cd700      Cd  0.28361501  0.71789226  0.96772023     1.59600
O701        O  0.22907662  0.77233337  0.91194083    -0.80000
O702        O  0.25140255  0.75039806  0.50019392    -1.90500
Cd703      Cd  0.21903116  0.71807733  0.53220010     1.59900
O704        O  0.27322509  0.72789065  0.91180888    -0.80000
O705        O  0.22841920  0.72762403  0.58800994    -0.78600
C706        C  0.35523809  0.74996144  0.49961533     0.83900
C707        C  0.25098590  0.85439225  0.49969550     0.83600
O708        O  0.27211674  0.77119508  0.58631977    -0.77600
C709        C  0.14611862  0.75062953  0.00000289     0.84400
O710        O  0.33678121  0.77131231  0.52140518    -0.77700
C711        C  0.25098685  0.74998033  0.89484588     0.84500
C712        C  0.25144093  0.64504466  0.00015740     0.84800
O713        O  0.27366278  0.66194230  0.97815634    -0.80100
O714        O  0.27150537  0.83579538  0.77150250    -0.77600
C715        C  0.25031303  0.74944209  0.85421111     0.83400
O716        O  0.33873532  0.72742379  0.72771194    -0.78700
O717        O  0.22855433  0.66185248  0.77216257    -0.80200
O718        O  0.16216886  0.77236649  0.72829325    -0.80000
O719        O  0.22811332  0.83804540  0.72743164    -0.78600
Zn720      Zn  0.28154334  0.78115136  0.78141736     1.55700
O721        O  0.16232240  0.72823065  0.77252475    -0.80000
Cd722      Cd  0.21811721  0.78222687  0.71789335     1.59700
Cd723      Cd  0.28302456  0.71755396  0.71788787     1.59600
O724        O  0.22846658  0.77194268  0.66199017    -0.80000
O725        O  0.25060317  0.75002143  0.75025395    -1.90500
Cd726      Cd  0.21823669  0.71776509  0.78241824     1.59900
O727        O  0.27303947  0.72790502  0.66195193    -0.80000
O728        O  0.22820966  0.72736230  0.83818735    -0.78600
C729        C  0.35452329  0.74973222  0.74982509     0.83900
C730        C  0.25014652  0.85401101  0.74967018     0.83600
O731        O  0.27174260  0.77109936  0.83606902    -0.77600
C732        C  0.14520570  0.75030670  0.75041359     0.85200
O733        O  0.33617072  0.77132341  0.77138971    -0.77700
C734        C  0.25076638  0.74992217  0.64493290     0.84500
C735        C  0.25076061  0.64468735  0.75016377     0.84800
O736        O  0.27301955  0.66160367  0.72821261    -0.80100
O737        O  0.97899030  0.47927578  0.41473563    -0.77600
C738        C  0.00059844  0.39649691  0.50102375     0.83400
O739        O  0.91217880  0.02326126  0.02331718    -0.78700
O740        O  0.52214923  0.47813267  0.08875304    -0.80200
O741        O  0.58818277  0.02242971  0.47853676    -0.80000
O742        O  0.52269428  0.02283235  0.41264072    -0.78600
Zn743      Zn  0.96912247  0.46939930  0.46940908     1.55700
O744        O  0.58831196  0.47830806  0.02268774    -0.80000
Cd745      Cd  0.53234656  0.03269100  0.46838687     1.59700
Cd746      Cd  0.96790683  0.03300193  0.03301108     1.59600
O747        O  0.52204945  0.08859107  0.47833179    -0.80000
O748        O  0.00006282  0.50046064  0.50055883    -1.90500
Cd749      Cd  0.53248671  0.46821300  0.03286762     1.59900
O750        O  0.97806059  0.08892707  0.02273969    -0.80000
O751        O  0.52277995  0.41245228  0.02310259    -0.78600
C752        C  0.89621300  0.50105342  0.50118840     0.83900
C753        C  0.00058805  0.50077233  0.39660604     0.83600
O754        O  0.97903184  0.41471402  0.47939214    -0.77600
C755        C  0.60538997  0.00041674  0.00067897     0.84400
O756        O  0.91461521  0.47951331  0.47955504    -0.77700
C757        C  0.50012802  0.10579428  0.00055912     0.84500
C758        C  0.50010462  0.00033147  0.10587438     0.84800
O759        O  0.97802087  0.02259736  0.08892548    -0.80100
O760        O  0.97907497  0.47885016  0.16450799    -0.77600
C761        C  0.00065610  0.39576849  0.25123348     0.83400
O762        O  0.91197233  0.02232732  0.27317211    -0.78700
O763        O  0.52222777  0.47801627  0.33894654    -0.80200
O764        O  0.58803131  0.02164935  0.22856357    -0.80000
O765        O  0.52258790  0.02260115  0.16273617    -0.78600
Zn766      Zn  0.96913205  0.46869268  0.21925012     1.55700
O767        O  0.58811898  0.47762114  0.27279476    -0.80000
Cd768      Cd  0.53226698  0.03195107  0.21852615     1.59700
Cd769      Cd  0.96764671  0.03206623  0.28303672     1.59600
O770        O  0.52204426  0.08769513  0.22878900    -0.80000
O771        O  0.99991725  0.49970085  0.25057792    -1.90500
Cd772      Cd  0.53230487  0.46765526  0.28306248     1.59900
O773        O  0.97781524  0.08787695  0.27286809    -0.80000
O774        O  0.52258429  0.41187141  0.27350799    -0.78600
C775        C  0.89604161  0.50015501  0.25098320     0.83900
C776        C  0.00056510  0.50060160  0.14652668     0.83600
O777        O  0.97931470  0.41407584  0.22938355    -0.77600
C778        C  0.60520720  0.99967640  0.25074682     0.84400
O779        O  0.91449366  0.47864285  0.22934656    -0.77700
C780        C  0.50000862  0.10491532  0.25092207     0.84500
C781        C  0.50004977  0.00015432  0.35597886     0.84800
O782        O  0.97766720  0.02201987  0.33894819    -0.80100
O783        O  0.97936563  0.22937650  0.41420936    -0.77600
C784        C  0.00066615  0.14644642  0.50086978     0.83400
O785        O  0.91195361  0.27309379  0.02242822    -0.78700
O786        O  0.52229641  0.22873156  0.08799620    -0.80200
O787        O  0.58800942  0.27255101  0.47783627    -0.80000
O788        O  0.52247023  0.27344789  0.41214761    -0.78600
Zn789      Zn  0.96922936  0.21926126  0.46880904     1.55700
O790        O  0.58824895  0.22838756  0.02193501    -0.80000
Cd791      Cd  0.53217106  0.28287661  0.46793349     1.59700
Cd792      Cd  0.96760624  0.28299004  0.03222176     1.59600
O793        O  0.52210086  0.33873634  0.47833771    -0.80000
O794        O  0.99995894  0.25046845  0.49995908    -1.90500
Cd795      Cd  0.53249581  0.21835371  0.03226968     1.59900
O796        O  0.97762642  0.33892704  0.02223291    -0.80000
O797        O  0.52272585  0.16254613  0.02295818    -0.78600
C798        C  0.89608210  0.25084046  0.50027804     0.83900
C799        C  0.00064188  0.25117633  0.39597309     0.83600
O800        O  0.97922624  0.16453642  0.47898982    -0.77600
C801        C  0.60526341  0.25051725  0.99990889     0.84400
O802        O  0.91458678  0.22930013  0.47871783    -0.77700
C803        C  0.49999713  0.35586342  0.00044200     0.84500
C804        C  0.50009128  0.25079875  0.10513478     0.84800
O805        O  0.97777172  0.27272416  0.08802235    -0.80100
O806        O  0.52170386  0.33654615  0.27212444    -0.77600
C807        C  0.49999247  0.25058302  0.35509150     0.83400
O808        O  0.58834215  0.22787009  0.22816968    -0.78700
O809        O  0.97840045  0.16304791  0.27339912    -0.80200
O810        O  0.91205522  0.27282817  0.22872513    -0.80000
O811        O  0.97759518  0.33881636  0.22883281    -0.78600
Zn812      Zn  0.53183331  0.28190408  0.28216987     1.55700
O813        O  0.91222277  0.22865603  0.27286627    -0.80000
Cd814      Cd  0.96792984  0.28309772  0.21901453     1.59700
Cd815      Cd  0.53250594  0.21850504  0.21878629     1.59600
O816        O  0.97824183  0.27314583  0.16319015    -0.80000
O817        O  0.50052008  0.25102665  0.25123525    -1.90500
Cd818      Cd  0.96808486  0.21888139  0.28326461     1.59900
O819        O  0.52233560  0.22875981  0.16305463    -0.80000
O820        O  0.97768790  0.22874587  0.33896660    -0.78600
C821        C  0.60454810  0.24998871  0.25014899     0.83900
C822        C  0.49994430  0.35488221  0.25071059     0.83600
O823        O  0.52175401  0.27188028  0.33682029    -0.77600
C824        C  0.89511690  0.25050016  0.25054929     0.84400
O825        O  0.58655176  0.27172027  0.27190658    -0.77700
C826        C  0.00023705  0.25092606  0.14598862     0.84500
C827        C  0.00022968  0.14577314  0.25110990     0.84800
O828        O  0.52222564  0.16276711  0.22894172    -0.80100
O829        O  0.77223074  0.08635738  0.02197778    -0.77600
C830        C  0.75092368  0.99958452  0.10483714     0.83400
O831        O  0.83949175  0.47800241  0.47837554    -0.78700
O832        O  0.72943629  0.41212849  0.02242497    -0.80200
O833        O  0.66334775  0.02258466  0.47876378    -0.80000
O834        O  0.72909575  0.08824701  0.47763253    -0.78600
Zn835      Zn  0.78228225  0.03165331  0.03219050     1.55700
O836        O  0.66347663  0.47844614  0.02289972    -0.80000
Cd837      Cd  0.71917162  0.03246092  0.46836047     1.59700
Cd838      Cd  0.78389271  0.46804476  0.46846031     1.59600
O839        O  0.72923246  0.02207831  0.41251085    -0.80000
O840        O  0.75157752  0.00043282  0.00087542    -1.90500
Cd841      Cd  0.71931486  0.46798117  0.03285687     1.59900
O842        O  0.77395079  0.47823717  0.41250838    -0.80000
O843        O  0.72914076  0.47733160  0.08863349    -0.78600
C844        C  0.85537966  0.00020833  0.00056262     0.83900
C845        C  0.75096675  0.10439227  0.99988039     0.83600
O846        O  0.77221230  0.02154356  0.08687294    -0.77600
C847        C  0.64626917  0.50050640  0.50080326     0.84400
O848        O  0.83690983  0.02169487  0.02220442    -0.77700
C849        C  0.75152417  0.50006610  0.39547259     0.84500
C850        C  0.75155301  0.39504938  0.50029258     0.84800
O851        O  0.77386565  0.41205073  0.47847488    -0.80100
O852        O  0.77201874  0.08598819  0.27161714    -0.77600
C853        C  0.75097236  0.99950981  0.35483124     0.83400
O854        O  0.83922970  0.47708075  0.22827514    -0.78700
O855        O  0.72906672  0.41180626  0.27267232    -0.80200
O856        O  0.66309625  0.02174882  0.22868492    -0.80000
O857        O  0.72828389  0.08782631  0.22787316    -0.78600
Zn858      Zn  0.78217368  0.03125032  0.28191115     1.55700
O859        O  0.66327367  0.47803022  0.27323390    -0.80000
Cd860      Cd  0.71882776  0.03199231  0.21840068     1.59700
Cd861      Cd  0.78350675  0.46749355  0.21839495     1.59600
O862        O  0.72907037  0.02193934  0.16254181    -0.80000
O863        O  0.75131913  0.99998912  0.25085364    -1.90500
Cd864      Cd  0.71910335  0.46769257  0.28308538     1.59900
O865        O  0.77362685  0.47792979  0.16247610    -0.80000
O866        O  0.72904022  0.47726642  0.33881308    -0.78600
C867        C  0.85518839  0.99938305  0.25031710     0.83900
C868        C  0.75037894  0.10401073  0.24986297     0.83600
O869        O  0.77229056  0.02129054  0.33667699    -0.77600
C870        C  0.64605574  0.49982693  0.25090544     0.84400
O871        O  0.83676510  0.02107569  0.27179979    -0.77700
C872        C  0.75133740  0.49992951  0.14547537     0.84500
C873        C  0.75083589  0.39465747  0.25025264     0.84800
O874        O  0.77303137  0.41157127  0.22824393    -0.80100
O875        O  0.77228319  0.33615383  0.02159544    -0.77600
C876        C  0.75044918  0.24958309  0.10426536     0.83400
O877        O  0.83932409  0.22787633  0.47731810    -0.78700
O878        O  0.72929935  0.16221775  0.02218245    -0.80200
O879        O  0.66320154  0.27286272  0.47812778    -0.80000
O880        O  0.72902469  0.33844285  0.47738588    -0.78600
Zn881      Zn  0.78221131  0.28138652  0.03158435     1.55700
O882        O  0.66330012  0.22844258  0.02197776    -0.80000
Cd883      Cd  0.71905366  0.28268421  0.46781672     1.59700
Cd884      Cd  0.78361490  0.21789235  0.46772030     1.59600
O885        O  0.72907659  0.27233334  0.41194084    -0.80000
O886        O  0.75140249  0.25039800  0.00019402    -1.90500
Cd887      Cd  0.71903103  0.21807721  0.03220018     1.59900
O888        O  0.77322509  0.22789061  0.41180885    -0.80000
O889        O  0.72841923  0.22762412  0.08800996    -0.78600
C890        C  0.85523807  0.24996140  0.99961539     0.83900
C891        C  0.75098586  0.35439227  0.99969549     0.83600
O892        O  0.77211679  0.27119520  0.08631990    -0.77600
C893        C  0.64611859  0.25062965  0.50000297     0.84400
O894        O  0.83678119  0.27131237  0.02140518    -0.77700
C895        C  0.75098682  0.24998027  0.39484586     0.84500
C896        C  0.75144090  0.14504459  0.50015746     0.84800
O897        O  0.77366269  0.16194229  0.47815637    -0.80100
O898        O  0.77150515  0.33579527  0.27150258    -0.77600
C899        C  0.75031307  0.24944199  0.35421111     0.83400
O900        O  0.83873537  0.22742362  0.22771202    -0.78700
O901        O  0.72855436  0.16185251  0.27216256    -0.80200
O902        O  0.66216884  0.27236647  0.22829330    -0.80000
O903        O  0.72811325  0.33804548  0.22743158    -0.78600
Zn904      Zn  0.78154326  0.28115125  0.28141745     1.55700
O905        O  0.66232244  0.22823051  0.27252466    -0.80000
Cd906      Cd  0.71811731  0.28222699  0.21789344     1.59700
Cd907      Cd  0.78302446  0.21755408  0.21788794     1.59600
O908        O  0.72846657  0.27194268  0.16199024    -0.80000
O909        O  0.75060324  0.25002155  0.25025400    -1.90500
Cd910      Cd  0.71823681  0.21776520  0.28241810     1.59900
O911        O  0.77303946  0.22790500  0.16195186    -0.80000
O912        O  0.72820976  0.22736219  0.33818730    -0.78600
C913        C  0.85452336  0.24973215  0.24982506     0.83900
C914        C  0.75014637  0.35401098  0.24967023     0.83600
O915        O  0.77174271  0.27109922  0.33606909    -0.77600
C916        C  0.64520570  0.25030664  0.25041361     0.85200
O917        O  0.83617079  0.27132349  0.27138954    -0.77700
C918        C  0.75076633  0.24992218  0.14493291     0.84500
C919        C  0.75076061  0.14468738  0.25016375     0.84800
O920        O  0.77301942  0.16160376  0.22821250    -0.80100
O921        O  0.97899023  0.47927569  0.91473554    -0.77600
C922        C  0.00059837  0.39649690  0.00102369     0.83400
O923        O  0.91217886  0.02326132  0.52331713    -0.78700
O924        O  0.52214929  0.47813269  0.58875319    -0.80200
O925        O  0.58818268  0.02242975  0.97853689    -0.80000
O926        O  0.52269415  0.02283244  0.91264071    -0.78600
Zn927      Zn  0.96912231  0.46939931  0.96940897     1.55700
O928        O  0.58831197  0.47830807  0.52268769    -0.80000
Cd929      Cd  0.53234639  0.03269102  0.96838700     1.59700
Cd930      Cd  0.96790690  0.03300195  0.53301123     1.59600
O931        O  0.52204932  0.08859107  0.97833185    -0.80000
O932        O  0.00006279  0.50046059  0.00055866    -1.90500
Cd933      Cd  0.53248678  0.46821302  0.53286778     1.59900
O934        O  0.97806067  0.08892708  0.52273963    -0.80000
O935        O  0.52277999  0.41245230  0.52310267    -0.78600
C936        C  0.89621298  0.50105344  0.00118843     0.83900
C937        C  0.00058802  0.50077226  0.89660602     0.83600
O938        O  0.97903182  0.41471404  0.97939205    -0.77600
C939        C  0.60539003  0.00041675  0.50067889     0.84400
O940        O  0.91461517  0.47951337  0.97955499    -0.77700
C941        C  0.50012805  0.10579427  0.50055901     0.84500
C942        C  0.50010472  0.00033152  0.60587449     0.84800
O943        O  0.97802093  0.02259739  0.58892562    -0.80100
O944        O  0.97907494  0.47885009  0.66450800    -0.77600
C945        C  0.00065612  0.39576849  0.75123345     0.83400
O946        O  0.91197230  0.02232739  0.77317203    -0.78700
O947        O  0.52222787  0.47801621  0.83894658    -0.80200
O948        O  0.58803129  0.02164934  0.72856357    -0.80000
O949        O  0.52258796  0.02260115  0.66273629    -0.78600
Zn950      Zn  0.96913210  0.46869269  0.71925026     1.55700
O951        O  0.58811896  0.47762112  0.77279468    -0.80000
Cd952      Cd  0.53226701  0.03195107  0.71852631     1.59700
Cd953      Cd  0.96764655  0.03206624  0.78303662     1.59600
O954        O  0.52204416  0.08769515  0.72878886    -0.80000
O955        O  0.99991723  0.49970088  0.75057801    -1.90500
Cd956      Cd  0.53230492  0.46765527  0.78306242     1.59900
O957        O  0.97781526  0.08787697  0.77286803    -0.80000
O958        O  0.52258419  0.41187145  0.77350792    -0.78600
C959        C  0.89604161  0.50015497  0.75098319     0.83900
C960        C  0.00056504  0.50060160  0.64652675     0.83600
O961        O  0.97931468  0.41407585  0.72938357    -0.77600
C962        C  0.60520717  0.99967636  0.75074680     0.84400
O963        O  0.91449368  0.47864277  0.72934665    -0.77700
C964        C  0.50000858  0.10491533  0.75092196     0.84500
C965        C  0.50004968  0.00015434  0.85597885     0.84800
O966        O  0.97766717  0.02201994  0.83894814    -0.80100
O967        O  0.97936566  0.22937640  0.91420935    -0.77600
C968        C  0.00066612  0.14644644  0.00086986     0.83400
O969        O  0.91195364  0.27309379  0.52242811    -0.78700
O970        O  0.52229644  0.22873150  0.58799616    -0.80200
O971        O  0.58800945  0.27255105  0.97783639    -0.80000
O972        O  0.52247014  0.27344790  0.91214756    -0.78600
Zn973      Zn  0.96922943  0.21926127  0.96880918     1.55700
O974        O  0.58824880  0.22838754  0.52193490    -0.80000
Cd975      Cd  0.53217111  0.28287662  0.96793341     1.59700
Cd976      Cd  0.96760631  0.28299005  0.53222165     1.59600
O977        O  0.52210068  0.33873634  0.97833759    -0.80000
O978        O  0.99995898  0.25046854  0.99995916    -1.90500
Cd979      Cd  0.53249563  0.21835350  0.53226958     1.59900
O980        O  0.97762645  0.33892705  0.52223285    -0.80000
O981        O  0.52272580  0.16254605  0.52295820    -0.78600
C982        C  0.89608211  0.25084048  0.00027814     0.83900
C983        C  0.00064184  0.25117622  0.89597305     0.83600
O984        O  0.97922619  0.16453642  0.97898992    -0.77600
C985        C  0.60526334  0.25051724  0.49990882     0.84400
O986        O  0.91458684  0.22930012  0.97871797    -0.77700
C987        C  0.49999725  0.35586343  0.50044204     0.84500
C988        C  0.50009133  0.25079870  0.60513476     0.84800
O989        O  0.97777179  0.27272417  0.58802228    -0.80100
O990        O  0.52170382  0.33654620  0.77212451    -0.77600
C991        C  0.49999241  0.25058300  0.85509154     0.83400
O992        O  0.58834223  0.22787012  0.72816965    -0.78700
O993        O  0.97840059  0.16304793  0.77339920    -0.80200
O994        O  0.91205517  0.27282823  0.72872521    -0.80000
O995        O  0.97759528  0.33881636  0.72883273    -0.78600
Zn996      Zn  0.53183316  0.28190410  0.78217001     1.55700
O997        O  0.91222272  0.22865597  0.77286624    -0.80000
Cd998      Cd  0.96792968  0.28309774  0.71901446     1.59700
Cd999      Cd  0.53250601  0.21850505  0.71878644     1.59600
O1000       O  0.97824185  0.27314589  0.66319018    -0.80000
O1001       O  0.50052004  0.25102669  0.75123524    -1.90500
Cd1002     Cd  0.96808490  0.21888140  0.78326473     1.59900
O1003       O  0.52233551  0.22875975  0.66305477    -0.80000
O1004       O  0.97768778  0.22874589  0.83896659    -0.78600
C1005       C  0.60454816  0.24998872  0.75014898     0.83900
C1006       C  0.49994431  0.35488222  0.75071056     0.83600
O1007       O  0.52175388  0.27188030  0.83682036    -0.77600
C1008       C  0.89511686  0.25050016  0.75054932     0.84400
O1009       O  0.58655176  0.27172028  0.77190656    -0.77700
C1010       C  0.00023705  0.25092608  0.64598865     0.84500
C1011       C  0.00022973  0.14577316  0.75110988     0.84800
O1012       O  0.52222561  0.16276713  0.72894167    -0.80100
O1013       O  0.77223055  0.08635737  0.52197790    -0.77600
C1014       C  0.75092367  0.99958456  0.60483704     0.83400
O1015       O  0.83949178  0.47800246  0.97837544    -0.78700
O1016       O  0.72943638  0.41212848  0.52242508    -0.80200
O1017       O  0.66334766  0.02258462  0.97876374    -0.80000
O1018       O  0.72909575  0.08824701  0.97763263    -0.78600
Zn1019     Zn  0.78228229  0.03165333  0.53219042     1.55700
O1020       O  0.66347664  0.47844612  0.52289968    -0.80000
Cd1021     Cd  0.71917166  0.03246092  0.96836062     1.59700
Cd1022     Cd  0.78389277  0.46804477  0.96846021     1.59600
O1023       O  0.72923239  0.02207825  0.91251091    -0.80000
O1024       O  0.75157743  0.00043287  0.50087544    -1.90500
Cd1025     Cd  0.71931492  0.46798119  0.53285679     1.59900
O1026       O  0.77395093  0.47823715  0.91250827    -0.80000
O1027       O  0.72914082  0.47733162  0.58863339    -0.78600
C1028       C  0.85537967  0.00020834  0.50056265     0.83900
C1029       C  0.75096665  0.10439227  0.49988042     0.83600
O1030       O  0.77221233  0.02154356  0.58687285    -0.77600
C1031       C  0.64626918  0.50050638  0.00080324     0.84400
O1032       O  0.83690986  0.02169494  0.52220437    -0.77700
C1033       C  0.75152425  0.50006607  0.89547256     0.84500
C1034       C  0.75155296  0.39504934  0.00029251     0.84800
O1035       O  0.77386567  0.41205069  0.97847486    -0.80100
O1036       O  0.77201871  0.08598820  0.77161717    -0.77600
C1037       C  0.75097232  0.99950986  0.85483119     0.83400
O1038       O  0.83922974  0.47708075  0.72827502    -0.78700
O1039       O  0.72906674  0.41180627  0.77267227    -0.80200
O1040       O  0.66309621  0.02174862  0.72868475    -0.80000
O1041       O  0.72828368  0.08782630  0.72787332    -0.78600
Zn1042     Zn  0.78217373  0.03125033  0.78191104     1.55700
O1043       O  0.66327374  0.47803021  0.77323385    -0.80000
Cd1044     Cd  0.71882758  0.03199232  0.71840058     1.59700
Cd1045     Cd  0.78350681  0.46749356  0.71839485     1.59600
O1046       O  0.72907038  0.02193942  0.66254171    -0.80000
O1047       O  0.75131903  0.99998914  0.75085355    -1.90500
Cd1048     Cd  0.71910342  0.46769259  0.78308550     1.59900
O1049       O  0.77362692  0.47792980  0.66247599    -0.80000
O1050       O  0.72904028  0.47726644  0.83881307    -0.78600
C1051       C  0.85518845  0.99938308  0.75031700     0.83900
C1052       C  0.75037882  0.10401072  0.74986308     0.83600
O1053       O  0.77229061  0.02129049  0.83667690    -0.77600
C1054       C  0.64605579  0.49982692  0.75090534     0.84400
O1055       O  0.83676515  0.02107571  0.77179968    -0.77700
C1056       C  0.75133747  0.49992953  0.64547526     0.84500
C1057       C  0.75083595  0.39465749  0.75025263     0.84800
O1058       O  0.77303151  0.41157131  0.72824399    -0.80100
O1059       O  0.77228321  0.33615389  0.52159556    -0.77600
C1060       C  0.75044918  0.24958309  0.60426533     0.83400
O1061       O  0.83932404  0.22787636  0.97731824    -0.78700
O1062       O  0.72929941  0.16221776  0.52218256    -0.80200
O1063       O  0.66320159  0.27286254  0.97812761    -0.80000
O1064       O  0.72902445  0.33844276  0.97738597    -0.78600
Zn1065     Zn  0.78221116  0.28138653  0.53158426     1.55700
O1066       O  0.66330012  0.22844265  0.52197782    -0.80000
Cd1067     Cd  0.71905372  0.28268399  0.96781664     1.59700
Cd1068     Cd  0.78361495  0.21789236  0.96772023     1.59600
O1069       O  0.72907665  0.27233335  0.91194080    -0.80000
O1070       O  0.75140246  0.25039806  0.50019394    -1.90500
Cd1071     Cd  0.71903110  0.21807723  0.53220010     1.59900
O1072       O  0.77322514  0.22789064  0.91180889    -0.80000
O1073       O  0.72841928  0.22762409  0.58800992    -0.78600
C1074       C  0.85523807  0.24996134  0.49961535     0.83900
C1075       C  0.75098598  0.35439233  0.49969552     0.83600
O1076       O  0.77211668  0.27119527  0.58631982    -0.77600
C1077       C  0.64611863  0.25062958  0.00000287     0.84400
O1078       O  0.83678114  0.27131221  0.52140517    -0.77700
C1079       C  0.75098688  0.24998027  0.89484587     0.84500
C1080       C  0.75144094  0.14504460  0.00015741     0.84800
O1081       O  0.77366273  0.16194230  0.97815633    -0.80100
O1082       O  0.77150528  0.33579529  0.77150250    -0.77600
C1083       C  0.75031305  0.24944197  0.85421112     0.83400
O1084       O  0.83873530  0.22742372  0.72771199    -0.78700
O1085       O  0.72855431  0.16185255  0.77216256    -0.80200
O1086       O  0.66216891  0.27236643  0.72829323    -0.80000
O1087       O  0.72811325  0.33804548  0.72743163    -0.78600
Zn1088     Zn  0.78154329  0.28115126  0.78141736     1.55700
O1089       O  0.66232251  0.22823059  0.77252474    -0.80000
Cd1090     Cd  0.71811736  0.28222701  0.71789336     1.59700
Cd1091     Cd  0.78302450  0.21755407  0.71788787     1.59600
O1092       O  0.72846665  0.27194269  0.66199029    -0.80000
O1093       O  0.75060318  0.25002155  0.75025393    -1.90500
Cd1094     Cd  0.71823686  0.21776522  0.78241824     1.59900
O1095       O  0.77303952  0.22790501  0.66195190    -0.80000
O1096       O  0.72820966  0.22736221  0.83818737    -0.78600
C1097       C  0.85452330  0.24973218  0.74982509     0.83900
C1098       C  0.75014644  0.35401100  0.74967021     0.83600
O1099       O  0.77174259  0.27109924  0.83606902    -0.77600
C1100       C  0.64520576  0.25030665  0.75041361     0.85200
O1101       O  0.83617073  0.27132345  0.77138964    -0.77700
C1102       C  0.75076639  0.24992218  0.64493294     0.84500
C1103       C  0.75076057  0.14468735  0.75016379     0.84800
O1104       O  0.77301950  0.16160365  0.72821260    -0.80100
O1105       O  0.97899018  0.97927581  0.41473560    -0.77600
C1106       C  0.00059846  0.89649688  0.50102375     0.83400
O1107       O  0.91217884  0.52326128  0.02331714    -0.78700
O1108       O  0.52214929  0.97813278  0.08875304    -0.80200
O1109       O  0.58818277  0.52242964  0.47853674    -0.80000
O1110       O  0.52269419  0.52283248  0.41264070    -0.78600
Zn1111     Zn  0.96912231  0.96939941  0.46940908     1.55700
O1112       O  0.58831196  0.97830809  0.02268775    -0.80000
Cd1113     Cd  0.53234660  0.53269086  0.46838687     1.59700
Cd1114     Cd  0.96790689  0.53300181  0.03301108     1.59600
O1115       O  0.52204933  0.58859092  0.47833175    -0.80000
O1116       O  0.00006287  0.00046072  0.50055880    -1.90500
Cd1117     Cd  0.53248676  0.96821288  0.03286762     1.59900
O1118       O  0.97806063  0.58892703  0.02273969    -0.80000
O1119       O  0.52278002  0.91245216  0.02310261    -0.78600
C1120       C  0.89621299  0.00105348  0.50118843     0.83900
C1121       C  0.00058805  0.00077229  0.39660605     0.83600
O1122       O  0.97903188  0.91471408  0.47939218    -0.77600
C1123       C  0.60538999  0.50041672  0.00067898     0.84400
O1124       O  0.91461518  0.97951341  0.47955499    -0.77700
C1125       C  0.50012805  0.60579420  0.00055908     0.84500
C1126       C  0.50010464  0.50033144  0.10587439     0.84800
O1127       O  0.97802091  0.52259742  0.08892551    -0.80100
O1128       O  0.97907500  0.97885008  0.16450797    -0.77600
C1129       C  0.00065607  0.89576856  0.25123345     0.83400
O1130       O  0.91197230  0.52232721  0.27317211    -0.78700
O1131       O  0.52222778  0.97801619  0.33894655    -0.80200
O1132       O  0.58803127  0.52164945  0.22856360    -0.80000
O1133       O  0.52258794  0.52260118  0.16273615    -0.78600
Zn1134     Zn  0.96913210  0.96869279  0.21925012     1.55700
O1135       O  0.58811897  0.97762102  0.27279472    -0.80000
Cd1136     Cd  0.53226699  0.53195118  0.21852615     1.59700
Cd1137     Cd  0.96764654  0.53206608  0.28303672     1.59600
O1138       O  0.52204416  0.58769515  0.22878892    -0.80000
O1139       O  0.99991732  0.99970089  0.25057796    -1.90500
Cd1140     Cd  0.53230490  0.96765514  0.28306248     1.59900
O1141       O  0.97781526  0.58787683  0.27286813    -0.80000
O1142       O  0.52258410  0.91187147  0.27350798    -0.78600
C1143       C  0.89604163  0.00015507  0.25098320     0.83900
C1144       C  0.00056507  0.00060157  0.14652667     0.83600
O1145       O  0.97931472  0.91407594  0.22938350    -0.77600
C1146       C  0.60520718  0.49967649  0.25074683     0.84400
O1147       O  0.91449369  0.97864294  0.22934657    -0.77700
C1148       C  0.50000858  0.60491526  0.25092206     0.84500
C1149       C  0.50004973  0.50015434  0.35597886     0.84800
O1150       O  0.97766710  0.52201983  0.33894819    -0.80100
O1151       O  0.97936572  0.72937636  0.41420936    -0.77600
C1152       C  0.00066622  0.64644639  0.50086977     0.83400
O1153       O  0.91195363  0.77309389  0.02242817    -0.78700
O1154       O  0.52229649  0.72873157  0.08799621    -0.80200
O1155       O  0.58800949  0.77255096  0.47783621    -0.80000
O1156       O  0.52247006  0.77344799  0.41214761    -0.78600
Zn1157     Zn  0.96922942  0.71926135  0.46880904     1.55700
O1158       O  0.58824879  0.72838763  0.02193505    -0.80000
Cd1159     Cd  0.53217111  0.78287670  0.46793349     1.59700
Cd1160     Cd  0.96760628  0.78299014  0.03222176     1.59600
O1161       O  0.52210074  0.83873629  0.47833771    -0.80000
O1162       O  0.99995900  0.75046857  0.49995907    -1.90500
Cd1163     Cd  0.53249561  0.71835359  0.03226967     1.59900
O1164       O  0.97762648  0.83892702  0.02223290    -0.80000
O1165       O  0.52272591  0.66254600  0.02295820    -0.78600
C1166       C  0.89608213  0.75084051  0.50027802     0.83900
C1167       C  0.00064184  0.75117626  0.39597309     0.83600
O1168       O  0.97922632  0.66453646  0.47898985    -0.77600
C1169       C  0.60526333  0.75051726  0.99990888     0.84400
O1170       O  0.91458680  0.72930010  0.47871788    -0.77700
C1171       C  0.49999716  0.85586338  0.00044197     0.84500
C1172       C  0.50009133  0.75079873  0.10513478     0.84800
O1173       O  0.97777172  0.77272413  0.08802233    -0.80100
O1174       O  0.52170388  0.83654629  0.27212445    -0.77600
C1175       C  0.49999238  0.75058302  0.35509150     0.83400
O1176       O  0.58834220  0.72787014  0.22816967    -0.78700
O1177       O  0.97840049  0.66304783  0.27339914    -0.80200
O1178       O  0.91205518  0.77282809  0.22872508    -0.80000
O1179       O  0.97759522  0.83881630  0.22883282    -0.78600
Zn1180     Zn  0.53183315  0.78190419  0.28216987     1.55700
O1181       O  0.91222269  0.72865608  0.27286633    -0.80000
Cd1182     Cd  0.96792967  0.78309759  0.21901453     1.59700
Cd1183     Cd  0.53250599  0.71850491  0.21878630     1.59600
O1184       O  0.97824178  0.77314582  0.16319015    -0.80000
O1185       O  0.50052007  0.75102664  0.25123523    -1.90500
Cd1186     Cd  0.96808489  0.71888127  0.28326461     1.59900
O1187       O  0.52233556  0.72875979  0.16305466    -0.80000
O1188       O  0.97768771  0.72874593  0.33896661    -0.78600
C1189       C  0.60454814  0.74998877  0.25014901     0.83900
C1190       C  0.49994427  0.85488226  0.25071058     0.83600
O1191       O  0.52175391  0.77188024  0.33682027    -0.77600
C1192       C  0.89511684  0.75050018  0.25054931     0.84400
O1193       O  0.58655175  0.77172033  0.27190657    -0.77700
C1194       C  0.00023706  0.75092610  0.14598862     0.84500
C1195       C  0.00022971  0.64577305  0.25110993     0.84800
O1196       O  0.52222564  0.66276700  0.22894173    -0.80100
O1197       O  0.77223072  0.58635745  0.02197772    -0.77600
C1198       C  0.75092365  0.49958454  0.10483714     0.83400
O1199       O  0.83949178  0.97800246  0.47837549    -0.78700
O1200       O  0.72943631  0.91212846  0.02242505    -0.80200
O1201       O  0.66334765  0.52258476  0.47876384    -0.80000
O1202       O  0.72909581  0.58824709  0.47763252    -0.78600
Zn1203     Zn  0.78228228  0.53165342  0.03219049     1.55700
O1204       O  0.66347665  0.97844619  0.02289976    -0.80000
Cd1205     Cd  0.71917164  0.53246103  0.46836048     1.59700
Cd1206     Cd  0.78389277  0.96804486  0.46846031     1.59600
O1207       O  0.72923239  0.52207838  0.41251085    -0.80000
O1208       O  0.75157743  0.50043287  0.00087544    -1.90500
Cd1209     Cd  0.71931491  0.96798126  0.03285687     1.59900
O1210       O  0.77395090  0.97823717  0.41250839    -0.80000
O1211       O  0.72914074  0.97733162  0.08863351    -0.78600
C1212       C  0.85537966  0.50020835  0.00056262     0.83900
C1213       C  0.75096666  0.60439236  0.99988040     0.83600
O1214       O  0.77221227  0.52154362  0.08687296    -0.77600
C1215       C  0.64626924  0.00050638  0.50080323     0.84400
O1216       O  0.83690986  0.52169495  0.02220436    -0.77700
C1217       C  0.75152422  0.00006602  0.39547259     0.84500
C1218       C  0.75155295  0.89504936  0.50029256     0.84800
O1219       O  0.77386562  0.91205076  0.47847491    -0.80100
O1220       O  0.77201879  0.58598823  0.27161714    -0.77600
C1221       C  0.75097233  0.49950994  0.35483124     0.83400
O1222       O  0.83922975  0.97708068  0.22827521    -0.78700
O1223       O  0.72906677  0.91180637  0.27267231    -0.80200
O1224       O  0.66309624  0.52174870  0.22868488    -0.80000
O1225       O  0.72828389  0.58782630  0.22787317    -0.78600
Zn1226     Zn  0.78217373  0.53125021  0.28191114     1.55700
O1227       O  0.66327374  0.97803032  0.27323392    -0.80000
Cd1228     Cd  0.71882759  0.53199219  0.21840069     1.59700
Cd1229     Cd  0.78350681  0.96749344  0.21839495     1.59600
O1230       O  0.72907041  0.52193939  0.16254182    -0.80000
O1231       O  0.75131904  0.49998905  0.25085365    -1.90500
Cd1232     Cd  0.71910341  0.96769269  0.28308538     1.59900
O1233       O  0.77362695  0.97792987  0.16247612    -0.80000
O1234       O  0.72904026  0.97726627  0.33881309    -0.78600
C1235       C  0.85518839  0.49938301  0.25031708     0.83900
C1236       C  0.75037896  0.60401074  0.24986296     0.83600
O1237       O  0.77229060  0.52129061  0.33667700    -0.77600
C1238       C  0.64605578  0.99982699  0.25090546     0.84400
O1239       O  0.83676512  0.52107559  0.27179987    -0.77700
C1240       C  0.75133743  0.99992951  0.14547538     0.84500
C1241       C  0.75083591  0.89465755  0.25025262     0.84800
O1242       O  0.77303142  0.91157131  0.22824392    -0.80100
O1243       O  0.77228322  0.83615376  0.02159544    -0.77600
C1244       C  0.75044917  0.74958297  0.10426537     0.83400
O1245       O  0.83932405  0.72787643  0.47731812    -0.78700
O1246       O  0.72929939  0.66221788  0.02218245    -0.80200
O1247       O  0.66320162  0.77286258  0.47812777    -0.80000
O1248       O  0.72902453  0.83844274  0.47738593    -0.78600
Zn1249     Zn  0.78221116  0.78138639  0.03158435     1.55700
O1250       O  0.66330013  0.72844249  0.02197770    -0.80000
Cd1251     Cd  0.71905371  0.78268407  0.46781672     1.59700
Cd1252     Cd  0.78361494  0.71789224  0.46772029     1.59600
O1253       O  0.72907658  0.77233328  0.41194087    -0.80000
O1254       O  0.75140251  0.75039802  0.00019396    -1.90500
Cd1255     Cd  0.71903109  0.71807731  0.03220018     1.59900
O1256       O  0.77322519  0.72789067  0.41180883    -0.80000
O1257       O  0.72841926  0.72762395  0.08801001    -0.78600
C1258       C  0.85523808  0.74996144  0.99961538     0.83900
C1259       C  0.75098593  0.85439225  0.99969547     0.83600
O1260       O  0.77211667  0.77119513  0.08631985    -0.77600
C1261       C  0.64611865  0.75062953  0.50000297     0.84400
O1262       O  0.83678116  0.77131230  0.02140525    -0.77700
C1263       C  0.75098687  0.74998030  0.39484586     0.84500
C1264       C  0.75144096  0.64504465  0.50015747     0.84800
O1265       O  0.77366275  0.66194232  0.47815636    -0.80100
O1266       O  0.77150522  0.83579538  0.27150259    -0.77600
C1267       C  0.75031300  0.74944207  0.35421110     0.83400
O1268       O  0.83873530  0.72742370  0.22771197    -0.78700
O1269       O  0.72855436  0.66185245  0.27216258    -0.80200
O1270       O  0.66216888  0.77236658  0.22829331    -0.80000
O1271       O  0.72811333  0.83804550  0.22743159    -0.78600
Zn1272     Zn  0.78154328  0.78115135  0.28141745     1.55700
O1273       O  0.66232252  0.72823060  0.27252465    -0.80000
Cd1274     Cd  0.71811737  0.78222707  0.21789344     1.59700
Cd1275     Cd  0.78302450  0.71755395  0.21788794     1.59600
O1276       O  0.72846657  0.77194262  0.16199024    -0.80000
O1277       O  0.75060328  0.75002148  0.25025400    -1.90500
Cd1278     Cd  0.71823686  0.71776508  0.28241811     1.59900
O1279       O  0.77303957  0.72790506  0.16195188    -0.80000
O1280       O  0.72820964  0.72736230  0.33818732    -0.78600
C1281       C  0.85452328  0.74973221  0.24982504     0.83900
C1282       C  0.75014642  0.85401105  0.24967024     0.83600
O1283       O  0.77174259  0.77109935  0.33606905    -0.77600
C1284       C  0.64520575  0.75030673  0.25041362     0.85200
O1285       O  0.83617069  0.77132345  0.27138961    -0.77700
C1286       C  0.75076638  0.74992215  0.14493292     0.84500
C1287       C  0.75076060  0.64468734  0.25016373     0.84800
O1288       O  0.77301944  0.66160369  0.22821250    -0.80100
O1289       O  0.97899021  0.97927577  0.91473554    -0.77600
C1290       C  0.00059843  0.89649687  0.00102368     0.83400
O1291       O  0.91217883  0.52326132  0.52331708    -0.78700
O1292       O  0.52214937  0.97813280  0.58875318    -0.80200
O1293       O  0.58818272  0.52242968  0.97853686    -0.80000
O1294       O  0.52269414  0.52283242  0.91264071    -0.78600
Zn1295     Zn  0.96912234  0.96939942  0.96940897     1.55700
O1296       O  0.58831200  0.97830811  0.52268769    -0.80000
Cd1297     Cd  0.53234644  0.53269087  0.96838700     1.59700
Cd1298     Cd  0.96790673  0.53300183  0.53301122     1.59600
O1299       O  0.52204937  0.58859094  0.97833186    -0.80000
O1300       O  0.00006278  0.00046070  0.00055870    -1.90500
Cd1301     Cd  0.53248683  0.96821290  0.53286777     1.59900
O1302       O  0.97806052  0.58892706  0.52273957    -0.80000
O1303       O  0.52278005  0.91245217  0.52310269    -0.78600
C1304       C  0.89621295  0.00105348  0.00118845     0.83900
C1305       C  0.00058798  0.00077233  0.89660602     0.83600
O1306       O  0.97903190  0.91471408  0.97939207    -0.77600
C1307       C  0.60538999  0.50041673  0.50067891     0.84400
O1308       O  0.91461512  0.97951345  0.97955493    -0.77700
C1309       C  0.50012802  0.60579420  0.50055899     0.84500
C1310       C  0.50010467  0.50033148  0.60587450     0.84800
O1311       O  0.97802099  0.52259742  0.58892561    -0.80100
O1312       O  0.97907505  0.97885008  0.66450799    -0.77600
C1313       C  0.00065606  0.89576856  0.75123345     0.83400
O1314       O  0.91197230  0.52232724  0.77317204    -0.78700
O1315       O  0.52222763  0.97801612  0.83894658    -0.80200
O1316       O  0.58803126  0.52164943  0.72856355    -0.80000
O1317       O  0.52258776  0.52260124  0.66273629    -0.78600
Zn1318     Zn  0.96913215  0.96869279  0.71925025     1.55700
O1319       O  0.58811892  0.97762101  0.77279469    -0.80000
Cd1320     Cd  0.53226683  0.53195119  0.71852630     1.59700
Cd1321     Cd  0.96764659  0.53206610  0.78303663     1.59600
O1322       O  0.52204421  0.58769519  0.72878890    -0.80000
O1323       O  0.99991725  0.99970081  0.75057806    -1.90500
Cd1324     Cd  0.53230474  0.96765514  0.78306242     1.59900
O1325       O  0.97781533  0.58787683  0.77286803    -0.80000
O1326       O  0.52258419  0.91187145  0.77350789    -0.78600
C1327       C  0.89604167  0.00015508  0.75098316     0.83900
C1328       C  0.00056514  0.00060159  0.64652674     0.83600
O1329       O  0.97931455  0.91407594  0.72938362    -0.77600
C1330       C  0.60520719  0.49967643  0.75074678     0.84400
O1331       O  0.91449378  0.97864291  0.72934665    -0.77700
C1332       C  0.50000862  0.60491529  0.75092207     0.84500
C1333       C  0.50004977  0.50015427  0.85597885     0.84800
O1334       O  0.97766718  0.52201978  0.83894814    -0.80100
O1335       O  0.97936562  0.72937643  0.91420932    -0.77600
C1336       C  0.00066620  0.64644638  0.00086983     0.83400
O1337       O  0.91195369  0.77309387  0.52242805    -0.78700
O1338       O  0.52229656  0.72873160  0.58799616    -0.80200
O1339       O  0.58800939  0.77255101  0.97783633    -0.80000
O1340       O  0.52247008  0.77344795  0.91214758    -0.78600
Zn1341     Zn  0.96922946  0.71926137  0.96880918     1.55700
O1342       O  0.58824884  0.72838762  0.52193497    -0.80000
Cd1343     Cd  0.53217093  0.78287671  0.96793341     1.59700
Cd1344     Cd  0.96760635  0.78299015  0.53222165     1.59600
O1345       O  0.52210071  0.83873632  0.97833758    -0.80000
O1346       O  0.99995889  0.75046860  0.99995919    -1.90500
Cd1347     Cd  0.53249568  0.71835360  0.53226958     1.59900
O1348       O  0.97762633  0.83892706  0.52223284    -0.80000
O1349       O  0.52272588  0.66254599  0.52295821    -0.78600
C1350       C  0.89608213  0.75084053  0.00027813     0.83900
C1351       C  0.00064182  0.75117626  0.89597304     0.83600
O1352       O  0.97922627  0.66453646  0.97898994    -0.77600
C1353       C  0.60526340  0.75051724  0.49990881     0.84400
O1354       O  0.91458684  0.72930009  0.97871803    -0.77700
C1355       C  0.49999714  0.85586339  0.50044203     0.84500
C1356       C  0.50009141  0.75079875  0.60513476     0.84800
O1357       O  0.97777171  0.77272420  0.58802229    -0.80100
O1358       O  0.52170381  0.83654631  0.77212448    -0.77600
C1359       C  0.49999244  0.75058302  0.85509153     0.83400
O1360       O  0.58834208  0.72787017  0.72816966    -0.78700
O1361       O  0.97840060  0.66304782  0.77339927    -0.80200
O1362       O  0.91205524  0.77282817  0.72872514    -0.80000
O1363       O  0.97759530  0.83881630  0.72883274    -0.78600
Zn1364     Zn  0.53183320  0.78190421  0.78217000     1.55700
O1365       O  0.91222277  0.72865604  0.77286630    -0.80000
Cd1366     Cd  0.96792972  0.78309761  0.71901446     1.59700
Cd1367     Cd  0.53250581  0.71850493  0.71878644     1.59600
O1368       O  0.97824183  0.77314583  0.66319021    -0.80000
O1369       O  0.50051997  0.75102670  0.75123527    -1.90500
Cd1370     Cd  0.96808495  0.71888127  0.78326474     1.59900
O1371       O  0.52233559  0.72875981  0.66305477    -0.80000
O1372       O  0.97768779  0.72874596  0.83896658    -0.78600
C1373       C  0.60454810  0.74998879  0.75014896     0.83900
C1374       C  0.49994421  0.85488227  0.75071057     0.83600
O1375       O  0.52175400  0.77188026  0.83682036    -0.77600
C1376       C  0.89511691  0.75050019  0.75054933     0.84400
O1377       O  0.58655179  0.77172037  0.77190656    -0.77700
C1378       C  0.00023708  0.75092610  0.64598864     0.84500
C1379       C  0.00022971  0.64577307  0.75110990     0.84800
O1380       O  0.52222547  0.66276704  0.72894162    -0.80100
O1381       O  0.77223060  0.58635745  0.52197790    -0.77600
C1382       C  0.75092372  0.49958456  0.60483703     0.83400
O1383       O  0.83949183  0.97800250  0.97837539    -0.78700
O1384       O  0.72943636  0.91212847  0.52242511    -0.80200
O1385       O  0.66334770  0.52258470  0.97876380    -0.80000
O1386       O  0.72909560  0.58824711  0.97763268    -0.78600
Zn1387     Zn  0.78228234  0.53165344  0.53219042     1.55700
O1388       O  0.66347670  0.97844616  0.52289973    -0.80000
Cd1389     Cd  0.71917169  0.53246104  0.96836061     1.59700
Cd1390     Cd  0.78389284  0.96804488  0.96846020     1.59600
O1391       O  0.72923242  0.52207822  0.91251094    -0.80000
O1392       O  0.75157745  0.50043291  0.50087546    -1.90500
Cd1393     Cd  0.71931497  0.96798127  0.53285679     1.59900
O1394       O  0.77395095  0.97823724  0.91250830    -0.80000
O1395       O  0.72914076  0.97733163  0.58863339    -0.78600
C1396       C  0.85537968  0.50020836  0.50056265     0.83900
C1397       C  0.75096670  0.60439235  0.49988042     0.83600
O1398       O  0.77221235  0.52154363  0.58687286    -0.77600
C1399       C  0.64626917  0.00050636  0.00080321     0.84400
O1400       O  0.83690992  0.52169503  0.52220432    -0.77700
C1401       C  0.75152420  0.00006606  0.89547256     0.84500
C1402       C  0.75155296  0.89504937  0.00029252     0.84800
O1403       O  0.77386556  0.91205079  0.97847481    -0.80100
O1404       O  0.77201877  0.58598824  0.77161718    -0.77600
C1405       C  0.75097238  0.49950997  0.85483119     0.83400
O1406       O  0.83922982  0.97708070  0.72827509    -0.78700
O1407       O  0.72906678  0.91180628  0.77267228    -0.80200
O1408       O  0.66309627  0.52174867  0.72868481    -0.80000
O1409       O  0.72828376  0.58782622  0.72787333    -0.78600
Zn1410     Zn  0.78217356  0.53125023  0.78191105     1.55700
O1411       O  0.66327375  0.97803026  0.77323390    -0.80000
Cd1412     Cd  0.71882765  0.53199219  0.71840059     1.59700
Cd1413     Cd  0.78350686  0.96749346  0.71839486     1.59600
O1414       O  0.72907049  0.52193942  0.66254171    -0.80000
O1415       O  0.75131904  0.49998904  0.75085357    -1.90500
Cd1416     Cd  0.71910346  0.96769268  0.78308550     1.59900
O1417       O  0.77362685  0.97792982  0.66247601    -0.80000
O1418       O  0.72904017  0.97726636  0.83881309    -0.78600
C1419       C  0.85518835  0.49938302  0.75031702     0.83900
C1420       C  0.75037890  0.60401072  0.74986305     0.83600
O1421       O  0.77229064  0.52129063  0.83667692    -0.77600
C1422       C  0.64605577  0.99982687  0.75090536     0.84400
O1423       O  0.83676501  0.52107558  0.77179974    -0.77700
C1424       C  0.75133739  0.99992955  0.64547528     0.84500
C1425       C  0.75083598  0.89465752  0.75025260     0.84800
O1426       O  0.77303154  0.91157133  0.72824399    -0.80100
O1427       O  0.77228317  0.83615379  0.52159549    -0.77600
C1428       C  0.75044918  0.74958296  0.60426532     0.83400
O1429       O  0.83932409  0.72787642  0.97731819    -0.78700
O1430       O  0.72929947  0.66221786  0.52218256    -0.80200
O1431       O  0.66320161  0.77286257  0.97812768    -0.80000
O1432       O  0.72902451  0.83844275  0.97738596    -0.78600
Zn1433     Zn  0.78221122  0.78138641  0.53158426     1.55700
O1434       O  0.66330016  0.72844253  0.52197781    -0.80000
Cd1435     Cd  0.71905377  0.78268408  0.96781664     1.59700
Cd1436     Cd  0.78361501  0.71789226  0.96772023     1.59600
O1437       O  0.72907663  0.77233332  0.91194085    -0.80000
O1438       O  0.75140254  0.75039806  0.50019392    -1.90500
Cd1439     Cd  0.71903115  0.71807733  0.53220010     1.59900
O1440       O  0.77322523  0.72789072  0.91180886    -0.80000
O1441       O  0.72841919  0.72762403  0.58800994    -0.78600
C1442       C  0.85523808  0.74996144  0.49961533     0.83900
C1443       C  0.75098589  0.85439225  0.49969550     0.83600
O1444       O  0.77211672  0.77119508  0.58631977    -0.77600
C1445       C  0.64611861  0.75062953  0.00000289     0.84400
O1446       O  0.83678120  0.77131231  0.52140518    -0.77700
C1447       C  0.75098691  0.74998032  0.89484588     0.84500
C1448       C  0.75144093  0.64504466  0.00015740     0.84800
O1449       O  0.77366277  0.66194231  0.97815633    -0.80100
O1450       O  0.77150536  0.83579538  0.77150250    -0.77600
C1451       C  0.75031304  0.74944208  0.85421111     0.83400
O1452       O  0.83873536  0.72742379  0.72771194    -0.78700
O1453       O  0.72855432  0.66185248  0.77216257    -0.80200
O1454       O  0.66216885  0.77236651  0.72829325    -0.80000
O1455       O  0.72811330  0.83804548  0.72743164    -0.78600
Zn1456     Zn  0.78154333  0.78115135  0.78141735     1.55700
O1457       O  0.66232239  0.72823066  0.77252475    -0.80000
Cd1458     Cd  0.71811720  0.78222709  0.71789335     1.59700
Cd1459     Cd  0.78302455  0.71755396  0.71788787     1.59600
O1460       O  0.72846658  0.77194271  0.66199017    -0.80000
O1461       O  0.75060314  0.75002147  0.75025393    -1.90500
Cd1462     Cd  0.71823668  0.71776509  0.78241824     1.59900
O1463       O  0.77303946  0.72790502  0.66195193    -0.80000
O1464       O  0.72820965  0.72736231  0.83818736    -0.78600
C1465       C  0.85452335  0.74973221  0.74982509     0.83900
C1466       C  0.75014652  0.85401104  0.74967018     0.83600
O1467       O  0.77174259  0.77109936  0.83606902    -0.77600
C1468       C  0.64520570  0.75030671  0.75041358     0.85200
O1469       O  0.83617077  0.77132341  0.77138971    -0.77700
C1470       C  0.75076636  0.74992217  0.64493291     0.84500
C1471       C  0.75076060  0.64468735  0.75016377     0.84800
O1472       O  0.77301954  0.66160367  0.72821261    -0.80100
loop_ 
_geom_bond_atom_site_label_1 
_geom_bond_atom_site_label_2 
_geom_bond_distance 
_geom_bond_site_symmetry_2 
_ccdc_geom_bond_type 
O1           C17   1.273       .  A
O1           Zn7   2.020       .  S
C2           O18   1.273       .  A
C2          O935   1.273       .  A
C2          C987   1.459       .  S
O3          C568   1.275       .  A
O3          Cd10   2.070       .  S
O4          C390   1.273       .  A
O4          Cd13   2.069       .  S
O5          C203   1.275       .  A
O5           Cd9   2.070       .  S
O6         C1121   1.273       .  A
O6           Cd9   2.067       .  S
Zn7          O18   2.020       .  S
Zn7          O20   2.018       .  S
Zn7          O12   1.950       .  S
O8          C387   1.275       .  A
O8          Cd13   2.072       .  S
Cd9          O11   2.068       .  S
Cd9        O1116   2.002       .  S
Cd10         O14   2.075       .  S
Cd10         O23   2.073       .  S
Cd10        O564   2.004       .  S
O11         C205   1.273       .  A
O12       Cd1113   2.002       .  S
O12        Cd562   2.004       .  S
O12        Cd933   2.002       .  S
Cd13         O15   2.069       .  S
Cd13        O932   2.002       .  S
O14         C757   1.274       .  A
O15         C922   1.273       .  A
C16          O20   1.274       .  A
C16         O555   1.275       .  A
C16         C660   1.468       .  S
C17        O1110   1.273       .  A
C17        C1149   1.459       .  S
C19         O189   1.275   1_554  A
C19         O376   1.275   1_545  A
C19         C663   1.469       .  S
C21         O195   1.273   1_554  A
C21         O750   1.274   1_455  A
C21         C968   1.459       .  S
C22         O372   1.273   1_545  A
C22         O759   1.274   1_455  A
C22        C1144   1.459       .  S
O23         C758   1.274       .  A
O24          C40   1.274       .  A
O24         Zn30   2.025       .  S
C25          O41   1.275       .  A
C25         O774   1.274       .  A
C25         C822   1.468       .  S
O26         C407   1.275       .  A
O26         Cd33   2.069       .  S
O27         C413   1.273       .  A
O27         Cd36   2.070       .  S
O28          C42   1.274   1_545  A
O28         Cd32   2.067       .  S
O29        C1144   1.273       .  A
O29         Cd32   2.066       .  S
Zn30         O41   2.020       .  S
Zn30         O43   2.021       .  S
Zn30         O35   1.949       .  S
O31         C410   1.275       .  A
O31         Cd36   2.071       .  S
Cd32         O34   2.064       .  S
Cd32       O1139   2.002   1_445  S
Cd33         O37   2.070       .  S
Cd33         O46   2.070       .  S
Cd33        O403   2.002   1_545  S
O34          C44   1.274       .  A
O35       Cd1136   2.002       .  S
O35        Cd401   2.002       .  S
O35        Cd772   2.001       .  S
Cd36         O38   2.068       .  S
Cd36        O771   2.001   1_455  S
O37         C780   1.275       .  A
O38         C761   1.274       .  A
C39          O43   1.274       .  A
C39         O394   1.275       .  A
C39         C499   1.469       .  S
C40        O1133   1.273       .  A
C40        C1126   1.459       .  S
C42         O399   1.275       .  A
C42         C502   1.468       .  S
C44         O773   1.275   1_455  A
C44         C827   1.467       .  S
C45         O395   1.273   1_545  A
C45         O782   1.273   1_455  A
C45        C1121   1.459       .  S
O46         C781   1.273       .  A
O47          C63   1.275       .  A
O47         Zn53   2.021       .  S
C48          O64   1.273       .  A
C48         O981   1.273       .  A
C48         C941   1.459       .  S
O49         C246   1.275       .  A
O49         Cd56   2.069       .  S
O50          C68   1.274       .  A
O50         Cd59   2.066       .  S
O51         C249   1.274       .  A
O51         Cd55   2.069       .  S
O52         C799   1.274       .  A
O52         Cd55   2.066       .  S
Zn53         O64   2.023       .  S
Zn53         O66   2.020       .  S
Zn53         O58   1.948       .  S
O54          C65   1.275   1_554  A
O54         Cd59   2.070       .  S
Cd55         O57   2.068       .  S
Cd55        O794   2.002   1_455  S
Cd56         O60   2.072       .  S
Cd56         O69   2.068       .  S
Cd56        O242   2.003   1_554  S
O57         C251   1.273   1_455  A
O58        Cd791   2.002       .  S
O58        Cd240   2.003       .  S
O58        Cd979   2.002       .  S
Cd59         O61   2.068       .  S
Cd59        O978   2.002   1_454  S
O60         C803   1.274       .  A
O61         C968   1.273       .  A
C62          O66   1.274       .  A
C62         O233   1.275       .  A
C62         C338   1.469       .  S
C63         O788   1.274       .  A
C63         C807   1.468       .  S
C65         O235   1.274       .  A
C65         C341   1.468   1_556  S
C67         O241   1.273   1_654  A
C67         O796   1.274       .  A
C67         C922   1.459   1_655  S
C68         O805   1.275   1_455  A
C68         C826   1.466       .  S
O69         C804   1.275       .  A
O70          C86   1.275   1_455  A
O70         Zn76   2.020       .  S
C71          O87   1.275   1_655  A
C71         O820   1.274       .  A
C71         C799   1.468   1_655  S
O72          C85   1.273       .  A
O72         Cd79   2.070       .  S
O73          C91   1.274       .  A
O73         Cd82   2.065       .  S
O74          C88   1.273       .  A
O74         Cd78   2.072       .  S
O75         C822   1.274       .  A
O75         Cd78   2.068       .  S
Zn76         O87   2.022       .  S
Zn76         O89   2.026       .  S
Zn76         O81   1.949       .  S
O77          C88   1.273       .  A
O77         Cd82   2.070       .  S
Cd78         O80   2.067       .  S
Cd78        O817   2.000       .  S
Cd79         O83   2.066       .  S
Cd79         O92   2.068       .  S
Cd79         O81   2.000       .  S
O80          C90   1.274       .  A
O81        Cd814   2.000   1_455  S
O81        Cd818   2.001   1_455  S
Cd82         O84   2.065       .  S
Cd82        O817   2.001       .  S
O83         C826   1.274       .  A
O84         C807   1.274       .  A
C85          O89   1.274       .  A
C85         C180   1.461       .  S
C86         O811   1.274       .  A
C86         C761   1.468   1_655  S
C88         C177   1.460       .  S
C90         O819   1.274       .  A
C90         C804   1.466       .  S
C91         O828   1.275       .  A
C91         C780   1.467       .  S
O92         C827   1.275       .  A
O93         C109   1.273   1_554  A
O93         Zn99   2.023       .  S
C94         O110   1.274   1_565  A
C94         O475   1.273       .  A
C94         C504   1.459       .  S
O95         C660   1.275       .  A
O95        Cd102   2.069       .  S
O96         C298   1.273       .  A
O96        Cd105   2.069       .  S
O97         C479   1.275       .  A
O97        Cd101   2.072       .  S
O98         C293   1.273       .  A
O98        Cd101   2.068       .  S
Zn99        O110   2.023       .  S
Zn99        O112   2.020       .  S
Zn99        O104   1.952       .  S
O100        C295   1.275       .  A
O100       Cd105   2.070       .  S
Cd101       O103   2.069       .  S
Cd101       O288   2.002       .  S
Cd102       O106   2.072       .  S
Cd102       O115   2.075       .  S
Cd102       O656   2.003       .  S
O103        C481   1.273       .  A
O104       Cd285   2.002   1_554  S
O104       Cd654   2.003   1_544  S
O104       Cd473   2.003   1_545  S
Cd105       O107   2.066       .  S
Cd105       O472   2.003       .  S
O106        C113   1.273       .  A
O107        C462   1.273       .  A
C108        O112   1.274       .  A
C108        O647   1.275   1_544  A
C108        C568   1.468       .  S
C109        O282   1.273       .  A
C109        C344   1.459   1_556  S
C111        O465   1.275       .  A
C111        O284   1.275       .  A
C111        C571   1.469       .  S
C113        O471   1.273       .  A
C113        C485   1.459       .  S
C114        O115   1.274       .  A
C114        O280   1.273       .  A
C114        C339   1.460       .  S
O116        C132   1.274       .  A
O116       Zn122   2.025       .  S
C117        O133   1.274   1_565  A
C117        O498   1.273       .  A
C117        C481   1.459   1_565  S
O118        C499   1.275       .  A
O118       Cd125   2.070       .  S
O119        C137   1.273       .  A
O119       Cd128   2.069       .  S
O120        C502   1.275   1_545  A
O120       Cd124   2.070       .  S
O121        C132   1.273       .  A
O121       Cd124   2.068       .  S
Zn122       O133   2.024       .  S
Zn122       O135   2.021       .  S
Zn122       O127   1.950   1_545  S
O123        C134   1.274       .  A
O123       Cd128   2.068       .  S
Cd124       O126   2.068       .  S
Cd124       O127   2.002   1_545  S
Cd125       O129   2.072       .  S
Cd125       O138   2.074       .  S
Cd125       O495   2.003       .  S
O126        C504   1.273   1_545  A
O127       Cd493   2.003       .  S
O127       Cd496   2.004       .  S
Cd128       O130   2.067       .  S
Cd128       O495   2.004       .  S
O129        C136   1.274       .  A
O130        C485   1.273       .  A
C131        O135   1.275   1_565  A
C131        O486   1.275       .  A
C131        C407   1.469   1_565  S
C132        C183   1.460       .  S
C134        O488   1.275       .  A
C134        C410   1.468       .  S
C136        O494   1.273       .  A
C136        C462   1.459       .  S
C137        O138   1.274       .  A
C137        C178   1.460       .  S
O139        C155   1.273   1_554  A
O139       Zn145   2.023       .  S
C140        O156   1.274       .  A
C140        O153   1.273       .  A
C140        C182   1.460       .  S
O141        C338   1.275       .  A
O141       Cd148   2.071       .  S
O142        C344   1.273       .  A
O142       Cd151   2.067       .  S
O143        C157   1.275       .  A
O143       Cd147   2.072       .  S
O144        C339   1.273       .  A
O144       Cd147   2.069       .  S
Zn145       O156   2.026       .  S
Zn145       O158   2.020       .  S
Zn145       O150   1.951       .  S
O146        C341   1.274       .  A
O146       Cd151   2.067       .  S
Cd147       O149   2.070       .  S
Cd147       O334   2.003       .  S
Cd148       O152   2.072       .  S
Cd148       O161   2.075       .  S
Cd148       O334   2.004       .  S
O149        C159   1.273       .  A
O150       Cd151   2.003       .  S
O150       Cd331   2.003   1_554  S
O150       Cd332   2.004   1_554  S
Cd151       O153   2.066       .  S
O152        C159   1.274       .  A
C154        O158   1.274   1_556  A
C154        O325   1.275       .  A
C154        C246   1.469   1_556  S
C155        O328   1.273       .  A
C155        C298   1.460   1_556  S
C157        O330   1.274       .  A
C157        C249   1.468       .  S
C159        C163   1.459       .  S
C160        O161   1.274       .  A
C160        O326   1.273       .  A
C160        C293   1.459       .  S
O162        C178   1.273       .  A
O162       Zn168   2.019       .  S
C163        O179   1.273       .  A
C163        O176   1.273       .  A
O164        C177   1.274       .  A
O164       Cd171   2.071       .  S
O165        C183   1.274       .  A
O165       Cd174   2.071       .  S
O166        C180   1.274       .  A
O166       Cd170   2.076       .  S
O167        C178   1.274       .  A
O167       Cd170   2.071       .  S
Zn168       O179   2.020       .  S
Zn168       O181   2.019       .  S
Zn168       O173   1.952       .  S
O169        C180   1.274       .  A
O169       Cd174   2.072       .  S
Cd170       O172   2.072       .  S
Cd170       O173   2.004       .  S
Cd171       O175   2.072       .  S
Cd171       O184   2.075       .  S
Cd171       O173   2.006       .  S
O172        C182   1.274       .  A
O173       Cd174   2.005       .  S
Cd174       O176   2.069       .  S
O175        C182   1.274       .  A
C177        O181   1.273       .  A
C183        O184   1.274       .  A
O185        C201   1.273       .  A
O185       Zn191   2.020       .  S
C186        O202   1.273   1_554  A
C186        O751   1.273       .  A
C186        C803   1.459       .  S
O187        C384   1.275       .  A
O187       Cd194   2.070       .  S
O188        C574   1.273       .  A
O188       Cd197   2.069       .  S
O189       Cd193   2.070       .  S
O190       C1305   1.273       .  A
O190       Cd193   2.067       .  S
Zn191       O202   2.020       .  S
Zn191       O204   2.018       .  S
Zn191       O196   1.950   1_556  S
O192        C571   1.275       .  A
O192       Cd197   2.072       .  S
Cd193       O195   2.068       .  S
Cd193      O1300   2.002   1_556  S
Cd194       O198   2.075       .  S
Cd194       O207   2.073       .  S
Cd194       O380   2.004       .  S
O196      Cd1297   2.002   1_554  S
O196       Cd378   2.004       .  S
O196       Cd749   2.002       .  S
Cd197       O199   2.069       .  S
Cd197       O748   2.002       .  S
O198        C941   1.274       .  A
O199        C738   1.273       .  A
C200        O371   1.275       .  A
C200        O204   1.274   1_554  A
C200        C476   1.468       .  S
C201       O1294   1.273       .  A
C201       C1333   1.459       .  S
C203        O560   1.275   1_545  A
C203        C479   1.469       .  S
C205        O934   1.274   1_455  A
C205        C784   1.459       .  S
C206        O556   1.273   1_545  A
C206        O943   1.274   1_455  A
C206       C1328   1.459       .  S
O207        C942   1.274       .  A
O208        C224   1.274       .  A
O208       Zn214   2.025       .  S
C209        O225   1.275       .  A
C209        O958   1.274       .  A
C209       C1006   1.468       .  S
O210        C591   1.275       .  A
O210       Cd217   2.069       .  S
O211        C597   1.273       .  A
O211       Cd220   2.070       .  S
O212        C226   1.274   1_545  A
O212       Cd216   2.067       .  S
O213       C1328   1.273       .  A
O213       Cd216   2.066       .  S
Zn214       O225   2.020       .  S
Zn214       O227   2.021       .  S
Zn214       O219   1.949       .  S
O215        C594   1.275       .  A
O215       Cd220   2.071       .  S
Cd216       O218   2.064       .  S
Cd216      O1323   2.002   1_445  S
Cd217       O221   2.070       .  S
Cd217       O230   2.070       .  S
Cd217       O587   2.002   1_545  S
O218        C228   1.274       .  A
O219      Cd1320   2.002       .  S
O219       Cd585   2.002       .  S
O219       Cd956   2.001       .  S
Cd220       O222   2.068       .  S
Cd220       O955   2.001   1_455  S
O221        C964   1.275       .  A
O222        C945   1.274       .  A
C223        O578   1.275       .  A
C223        O227   1.274       .  A
C223        C683   1.469       .  S
C224       O1317   1.273       .  A
C224       C1310   1.459       .  S
C226        O583   1.275       .  A
C226        C686   1.468       .  S
C228        O957   1.275   1_455  A
C228       C1011   1.467       .  S
C229        O579   1.273   1_545  A
C229        O966   1.273   1_455  A
C229       C1305   1.459       .  S
O230        C965   1.273       .  A
O231        C247   1.275       .  A
O231       Zn237   2.021       .  S
C232        O248   1.273   1_554  A
C232        O797   1.273       .  A
C232        C757   1.459       .  S
O233       Cd240   2.069       .  S
O234        C252   1.274       .  A
O234       Cd243   2.066       .  S
O235       Cd239   2.069       .  S
O236        C983   1.274       .  A
O236       Cd239   2.066       .  S
Zn237       O248   2.023       .  S
Zn237       O250   2.020       .  S
Zn237       O242   1.948       .  S
O238        C249   1.275       .  A
O238       Cd243   2.070       .  S
Cd239       O241   2.068       .  S
Cd239       O978   2.002   1_455  S
Cd240       O244   2.072       .  S
Cd240       O253   2.068       .  S
O242       Cd975   2.002       .  S
O242       Cd795   2.002   1_556  S
Cd243       O245   2.068       .  S
Cd243       O794   2.002   1_455  S
O244        C987   1.274       .  A
O245        C784   1.273       .  A
C246        O250   1.274   1_554  A
C247        O972   1.274       .  A
C247        C991   1.468       .  S
C251        O980   1.274       .  A
C251        C738   1.459   1_655  S
C252        O989   1.275   1_455  A
C252       C1010   1.466       .  S
O253        C988   1.275       .  A
O254        C270   1.275   1_455  A
O254       Zn260   2.020       .  S
C255        O271   1.275   1_655  A
C255       O1004   1.274       .  A
C255        C983   1.468   1_655  S
O256        C269   1.273       .  A
O256       Cd263   2.070       .  S
O257        C275   1.274       .  A
O257       Cd266   2.065       .  S
O258        C272   1.273       .  A
O258       Cd262   2.072       .  S
O259       C1006   1.274       .  A
O259       Cd262   2.068       .  S
Zn260       O271   2.022       .  S
Zn260       O273   2.026       .  S
Zn260       O265   1.949       .  S
O261        C272   1.273       .  A
O261       Cd266   2.070       .  S
Cd262       O264   2.067       .  S
Cd262      O1001   2.000       .  S
Cd263       O267   2.066       .  S
Cd263       O276   2.068       .  S
Cd263       O265   2.000       .  S
O264        C274   1.274       .  A
O265       Cd998   2.000   1_455  S
O265      Cd1002   2.001   1_455  S
Cd266       O268   2.065       .  S
Cd266      O1001   2.001       .  S
O267       C1010   1.274       .  A
O268        C991   1.274       .  A
C269        O273   1.274       .  A
C269        C364   1.461       .  S
C270        O995   1.274       .  A
C270        C945   1.468   1_655  S
C272        C361   1.460       .  S
C274       O1003   1.274       .  A
C274        C988   1.466       .  S
C275       O1012   1.275       .  A
C275        C964   1.467       .  S
O276       C1011   1.275       .  A
O277        C293   1.273       .  A
O277       Zn283   2.023       .  S
C278        O294   1.274   1_565  A
C278        O659   1.273       .  A
C278        C688   1.459       .  S
O279        C476   1.275   1_556  A
O279       Cd286   2.069       .  S
O280       Cd289   2.069       .  S
O281        C663   1.275   1_556  A
O281       Cd285   2.072       .  S
O282       Cd285   2.068       .  S
Zn283       O294   2.023       .  S
Zn283       O296   2.020       .  S
Zn283       O288   1.952       .  S
O284       Cd289   2.070       .  S
Cd285       O287   2.069       .  S
Cd286       O290   2.072       .  S
Cd286       O299   2.075       .  S
Cd286       O472   2.003   1_556  S
O287        C665   1.273       .  A
O288       Cd470   2.003   1_545  S
O288       Cd657   2.003   1_545  S
Cd289       O291   2.066       .  S
Cd289       O656   2.003       .  S
O290        C297   1.273       .  A
O291        C646   1.273       .  A
C292        O463   1.275   1_545  A
C292        O296   1.274       .  A
C292        C384   1.468       .  S
C295        O649   1.275   1_554  A
C295        C387   1.469       .  S
C297        O655   1.273       .  A
C297        C669   1.459       .  S
C298        O299   1.274   1_554  A
O300        C316   1.274       .  A
O300       Zn306   2.025       .  S
C301        O317   1.274   1_565  A
C301        O682   1.273       .  A
C301        C665   1.459   1_565  S
O302        C683   1.275       .  A
O302       Cd309   2.070       .  S
O303        C321   1.273       .  A
O303       Cd312   2.069       .  S
O304        C686   1.275   1_545  A
O304       Cd308   2.070       .  S
O305        C316   1.273       .  A
O305       Cd308   2.068       .  S
Zn306       O317   2.024       .  S
Zn306       O319   2.021       .  S
Zn306       O311   1.950   1_545  S
O307        C318   1.274       .  A
O307       Cd312   2.068       .  S
Cd308       O310   2.068       .  S
Cd308       O311   2.002   1_545  S
Cd309       O313   2.072       .  S
Cd309       O322   2.074       .  S
Cd309       O679   2.003       .  S
O310        C688   1.273   1_545  A
O311       Cd677   2.003       .  S
O311       Cd680   2.004       .  S
Cd312       O314   2.067       .  S
Cd312       O679   2.004       .  S
O313        C320   1.274       .  A
O314        C669   1.273       .  A
C315        O670   1.275       .  A
C315        O319   1.275   1_565  A
C315        C591   1.469   1_565  S
C316        C367   1.460       .  S
C318        O672   1.275       .  A
C318        C594   1.468       .  S
C320        O678   1.273       .  A
C320        C646   1.459       .  S
C321        O322   1.274       .  A
C321        C362   1.460       .  S
O323        C339   1.273       .  A
O323       Zn329   2.023       .  S
C324        O340   1.274       .  A
C324        O337   1.273       .  A
C324        C366   1.460       .  S
O325       Cd332   2.071       .  S
O326       Cd335   2.067       .  S
O327        C341   1.275   1_556  A
O327       Cd331   2.072       .  S
O328       Cd331   2.069       .  S
Zn329       O340   2.026       .  S
Zn329       O342   2.020       .  S
Zn329       O334   1.951       .  S
O330       Cd335   2.067       .  S
Cd331       O333   2.070       .  S
Cd332       O336   2.072       .  S
Cd332       O345   2.075       .  S
O333        C343   1.273       .  A
O334       Cd335   2.003       .  S
Cd335       O337   2.066       .  S
O336        C343   1.274       .  A
C338        O342   1.274       .  A
C343        C347   1.459       .  S
C344        O345   1.274   1_554  A
O346        C362   1.273       .  A
O346       Zn352   2.019       .  S
C347        O363   1.273       .  A
C347        O360   1.273       .  A
O348        C361   1.274       .  A
O348       Cd355   2.071       .  S
O349        C367   1.274       .  A
O349       Cd358   2.071       .  S
O350        C364   1.274       .  A
O350       Cd354   2.076       .  S
O351        C362   1.274       .  A
O351       Cd354   2.071       .  S
Zn352       O363   2.020       .  S
Zn352       O365   2.019       .  S
Zn352       O357   1.952       .  S
O353        C364   1.274       .  A
O353       Cd358   2.072       .  S
Cd354       O356   2.072       .  S
Cd354       O357   2.004       .  S
Cd355       O359   2.072       .  S
Cd355       O368   2.075       .  S
Cd355       O357   2.006       .  S
O356        C366   1.274       .  A
O357       Cd358   2.005       .  S
Cd358       O360   2.069       .  S
O359        C366   1.274       .  A
C361        O365   1.273       .  A
C367        O368   1.274       .  A
O369        C385   1.273   1_565  A
O369       Zn375   2.020       .  S
C370        O386   1.273       .  A
C370       O1303   1.273       .  A
C370       C1355   1.459       .  S
O371       Cd378   2.070       .  S
O372       Cd381   2.069       .  S
O373        C571   1.275       .  A
O373       Cd377   2.070       .  S
O374        C753   1.273       .  A
O374       Cd377   2.067       .  S
Zn375       O386   2.020       .  S
Zn375       O388   2.018       .  S
Zn375       O380   1.950   1_565  S
O376       Cd381   2.072       .  S
Cd377       O379   2.068       .  S
Cd377       O748   2.002       .  S
Cd378       O382   2.075       .  S
Cd378       O391   2.073       .  S
O379        C573   1.273       .  A
O380       Cd745   2.002       .  S
O380      Cd1301   2.002   1_545  S
Cd381       O383   2.069       .  S
Cd381      O1300   2.002   1_565  S
O382       C1125   1.274       .  A
O383       C1290   1.273       .  A
C384        O388   1.274   1_545  A
C385        O742   1.273       .  A
C385        C781   1.459       .  S
C387        O557   1.275   1_554  A
C389        O563   1.273   1_554  A
C389       O1118   1.274   1_455  A
C389       C1336   1.459       .  S
C390       O1127   1.274   1_455  A
C390        C776   1.459       .  S
O391       C1126   1.274       .  A
O392        C408   1.274   1_565  A
O392       Zn398   2.025       .  S
C393        O409   1.275       .  A
C393       O1142   1.274       .  A
C393       C1190   1.468       .  S
O394       Cd401   2.069       .  S
O395       Cd404   2.070       .  S
O396        C410   1.274       .  A
O396       Cd400   2.067       .  S
O397        C776   1.273       .  A
O397       Cd400   2.066       .  S
Zn398       O409   2.020       .  S
Zn398       O411   2.021       .  S
Zn398       O403   1.949       .  S
O399       Cd404   2.071       .  S
Cd400       O402   2.064       .  S
Cd400       O771   2.002   1_455  S
Cd401       O405   2.070       .  S
Cd401       O414   2.070       .  S
O402        C412   1.274       .  A
O403       Cd768   2.002   1_565  S
O403      Cd1140   2.001       .  S
Cd404       O406   2.068       .  S
Cd404      O1139   2.001   1_455  S
O405       C1148   1.275       .  A
O406       C1129   1.274       .  A
C407        O411   1.274   1_545  A
C408        O765   1.273       .  A
C408        C758   1.459       .  S
C412       O1141   1.275   1_455  A
C412       C1195   1.467       .  S
C413       O1150   1.273   1_455  A
C413        C753   1.459       .  S
O414       C1149   1.273       .  A
O415        C431   1.275       .  A
O415       Zn421   2.021       .  S
C416        O432   1.273       .  A
C416       O1349   1.273       .  A
C416       C1309   1.459       .  S
O417        C614   1.275       .  A
O417       Cd424   2.069       .  S
O418        C436   1.274       .  A
O418       Cd427   2.066       .  S
O419        C617   1.274       .  A
O419       Cd423   2.069       .  S
O420       C1167   1.274       .  A
O420       Cd423   2.066       .  S
Zn421       O432   2.023       .  S
Zn421       O434   2.020       .  S
Zn421       O426   1.948       .  S
O422        C433   1.275   1_554  A
O422       Cd427   2.070       .  S
Cd423       O425   2.068       .  S
Cd423      O1162   2.002   1_455  S
Cd424       O428   2.072       .  S
Cd424       O437   2.068       .  S
Cd424       O610   2.003   1_554  S
O425        C619   1.273   1_455  A
O426      Cd1159   2.002       .  S
O426       Cd608   2.003       .  S
O426      Cd1347   2.002       .  S
Cd427       O429   2.068       .  S
Cd427      O1346   2.002   1_454  S
O428       C1171   1.274       .  A
O429       C1336   1.273       .  A
C430        O601   1.275       .  A
C430        O434   1.274       .  A
C430        C706   1.469       .  S
C431       O1156   1.274       .  A
C431       C1175   1.468       .  S
C433        O603   1.274       .  A
C433        C709   1.468   1_556  S
C435        O609   1.273   1_654  A
C435       O1164   1.274       .  A
C435       C1290   1.459   1_655  S
C436       O1173   1.275   1_455  A
C436       C1194   1.466       .  S
O437       C1172   1.275       .  A
O438        C454   1.275   1_455  A
O438       Zn444   2.020       .  S
C439        O455   1.275   1_655  A
C439       O1188   1.274       .  A
C439       C1167   1.468   1_655  S
O440        C453   1.273       .  A
O440       Cd447   2.070       .  S
O441        C459   1.274       .  A
O441       Cd450   2.065       .  S
O442        C456   1.273       .  A
O442       Cd446   2.072       .  S
O443       C1190   1.274       .  A
O443       Cd446   2.068       .  S
Zn444       O455   2.022       .  S
Zn444       O457   2.026       .  S
Zn444       O449   1.949       .  S
O445        C456   1.273       .  A
O445       Cd450   2.070       .  S
Cd446       O448   2.067       .  S
Cd446      O1185   2.000       .  S
Cd447       O451   2.066       .  S
Cd447       O460   2.068       .  S
Cd447       O449   2.000       .  S
O448        C458   1.274       .  A
O449      Cd1182   2.000   1_455  S
O449      Cd1186   2.001   1_455  S
Cd450       O452   2.065       .  S
Cd450      O1185   2.001       .  S
O451       C1194   1.274       .  A
O452       C1175   1.274       .  A
C453        O457   1.274       .  A
C453        C548   1.461       .  S
C454       O1179   1.274       .  A
C454       C1129   1.468   1_655  S
C456        C545   1.460       .  S
C458       O1187   1.274       .  A
C458       C1172   1.466       .  S
C459       O1196   1.275       .  A
C459       C1148   1.467       .  S
O460       C1195   1.275       .  A
O461        C477   1.273   1_554  A
O461       Zn467   2.023       .  S
C462        O478   1.274       .  A
O463       Cd470   2.069       .  S
O464        C666   1.273       .  A
O464       Cd473   2.069       .  S
O465       Cd469   2.072       .  S
O466        C661   1.273       .  A
O466       Cd469   2.068       .  S
Zn467       O478   2.023       .  S
Zn467       O480   2.020       .  S
Zn467       O472   1.952       .  S
O468        C663   1.275   1_565  A
O468       Cd473   2.070       .  S
Cd469       O471   2.069       .  S
Cd469       O656   2.002       .  S
Cd470       O474   2.072       .  S
Cd470       O483   2.075       .  S
O472       Cd653   2.002   1_554  S
Cd473       O475   2.066       .  S
O474        C481   1.273   1_565  A
C476        O480   1.274       .  A
C477        O650   1.273       .  A
C477        C712   1.459   1_556  S
C479        O652   1.275   1_545  A
C482        O648   1.273       .  A
C482        O483   1.274       .  A
C482        C707   1.460       .  S
O484        C500   1.274       .  A
O484       Zn490   2.025       .  S
C485        O501   1.274       .  A
O486       Cd493   2.070       .  S
O487        C505   1.273       .  A
O487       Cd496   2.069       .  S
O488       Cd492   2.070       .  S
O489        C500   1.273       .  A
O489       Cd492   2.068       .  S
Zn490       O501   2.024       .  S
Zn490       O503   2.021       .  S
Zn490       O495   1.950       .  S
O491        C502   1.274       .  A
O491       Cd496   2.068       .  S
Cd492       O494   2.068       .  S
Cd492       O495   2.002       .  S
Cd493       O497   2.072       .  S
Cd493       O506   2.074       .  S
Cd496       O498   2.067       .  S
O497        C504   1.274       .  A
C499        O503   1.275       .  A
C500        C551   1.460       .  S
C505        O506   1.274       .  A
C505        C546   1.460       .  S
O507        C523   1.273   1_554  A
O507       Zn513   2.023       .  S
C508        O524   1.274       .  A
C508        O521   1.273       .  A
C508        C550   1.460       .  S
O509        C706   1.275       .  A
O509       Cd516   2.071       .  S
O510        C712   1.273       .  A
O510       Cd519   2.067       .  S
O511        C525   1.275       .  A
O511       Cd515   2.072       .  S
O512        C707   1.273       .  A
O512       Cd515   2.069       .  S
Zn513       O524   2.026       .  S
Zn513       O526   2.020       .  S
Zn513       O518   1.951       .  S
O514        C709   1.274       .  A
O514       Cd519   2.067       .  S
Cd515       O517   2.070       .  S
Cd515       O702   2.003       .  S
Cd516       O520   2.072       .  S
Cd516       O529   2.075       .  S
Cd516       O702   2.004       .  S
O517        C527   1.273       .  A
O518       Cd699   2.003   1_554  S
O518       Cd700   2.004   1_554  S
O518       Cd519   2.003       .  S
Cd519       O521   2.066       .  S
O520        C527   1.274       .  A
C522        O693   1.275       .  A
C522        O526   1.274   1_556  A
C522        C614   1.469   1_556  S
C523        O696   1.273       .  A
C523        C666   1.460   1_556  S
C525        O698   1.274       .  A
C525        C617   1.468       .  S
C527        C531   1.459       .  S
C528        O694   1.273       .  A
C528        O529   1.274       .  A
C528        C661   1.459       .  S
O530        C546   1.273       .  A
O530       Zn536   2.019       .  S
C531        O547   1.273       .  A
C531        O544   1.273       .  A
O532        C545   1.274       .  A
O532       Cd539   2.071       .  S
O533        C551   1.274       .  A
O533       Cd542   2.071       .  S
O534        C548   1.274       .  A
O534       Cd538   2.076       .  S
O535        C546   1.274       .  A
O535       Cd538   2.071       .  S
Zn536       O547   2.020       .  S
Zn536       O549   2.019       .  S
Zn536       O541   1.952       .  S
O537        C548   1.274       .  A
O537       Cd542   2.072       .  S
Cd538       O540   2.072       .  S
Cd538       O541   2.004       .  S
Cd539       O543   2.072       .  S
Cd539       O552   2.075       .  S
Cd539       O541   2.006       .  S
O540        C550   1.274       .  A
O541       Cd542   2.005       .  S
Cd542       O544   2.069       .  S
O543        C550   1.274       .  A
C545        O549   1.273       .  A
C551        O552   1.274       .  A
O553        C569   1.273   1_565  A
O553       Zn559   2.020       .  S
C554        O570   1.273   1_554  A
C554       O1119   1.273       .  A
C554       C1171   1.459       .  S
O555       Cd562   2.070       .  S
O556       Cd565   2.069       .  S
O557       Cd561   2.070       .  S
O558        C937   1.273       .  A
O558       Cd561   2.067       .  S
Zn559       O570   2.020       .  S
Zn559       O572   2.018       .  S
Zn559       O564   1.950   1_566  S
O560       Cd565   2.072       .  S
Cd561       O563   2.068       .  S
Cd561       O932   2.002   1_556  S
Cd562       O566   2.075       .  S
Cd562       O575   2.073       .  S
O564       Cd929   2.002   1_554  S
O564      Cd1117   2.002   1_545  S
Cd565       O567   2.069       .  S
Cd565      O1116   2.002   1_565  S
O566       C1309   1.274       .  A
O567       C1106   1.273       .  A
C568        O572   1.274   1_544  A
C569        O926   1.273       .  A
C569        C965   1.459       .  S
C573       O1302   1.274   1_455  A
C573       C1152   1.459       .  S
C574       O1311   1.274   1_455  A
C574        C960   1.459       .  S
O575       C1310   1.274       .  A
O576        C592   1.274   1_565  A
O576       Zn582   2.025       .  S
C577        O593   1.275       .  A
C577       O1326   1.274       .  A
C577       C1374   1.468       .  S
O578       Cd585   2.069       .  S
O579       Cd588   2.070       .  S
O580        C594   1.274       .  A
O580       Cd584   2.067       .  S
O581        C960   1.273       .  A
O581       Cd584   2.066       .  S
Zn582       O593   2.020       .  S
Zn582       O595   2.021       .  S
Zn582       O587   1.949       .  S
O583       Cd588   2.071       .  S
Cd584       O586   2.064       .  S
Cd584       O955   2.002   1_455  S
Cd585       O589   2.070       .  S
Cd585       O598   2.070       .  S
O586        C596   1.274       .  A
O587       Cd952   2.002   1_565  S
O587      Cd1324   2.001       .  S
Cd588       O590   2.068       .  S
Cd588      O1323   2.001   1_455  S
O589       C1332   1.275       .  A
O590       C1313   1.274       .  A
C591        O595   1.274   1_545  A
C592        O949   1.273       .  A
C592        C942   1.459       .  S
C596       O1325   1.275   1_455  A
C596       C1379   1.467       .  S
C597       O1334   1.273   1_455  A
C597        C937   1.459       .  S
O598       C1333   1.273       .  A
O599        C615   1.275       .  A
O599       Zn605   2.021       .  S
C600        O616   1.273   1_554  A
C600       O1165   1.273       .  A
C600       C1125   1.459       .  S
O601       Cd608   2.069       .  S
O602        C620   1.274       .  A
O602       Cd611   2.066       .  S
O603       Cd607   2.069       .  S
O604       C1351   1.274       .  A
O604       Cd607   2.066       .  S
Zn605       O616   2.023       .  S
Zn605       O618   2.020       .  S
Zn605       O610   1.948       .  S
O606        C617   1.275       .  A
O606       Cd611   2.070       .  S
Cd607       O609   2.068       .  S
Cd607      O1346   2.002   1_455  S
Cd608       O612   2.072       .  S
Cd608       O621   2.068       .  S
O610      Cd1343   2.002       .  S
O610      Cd1163   2.002   1_556  S
Cd611       O613   2.068       .  S
Cd611      O1162   2.002   1_455  S
O612       C1355   1.274       .  A
O613       C1152   1.273       .  A
C614        O618   1.274   1_554  A
C615       O1340   1.274       .  A
C615       C1359   1.468       .  S
C619       O1348   1.274       .  A
C619       C1106   1.459   1_655  S
C620       O1357   1.275   1_455  A
C620       C1378   1.466       .  S
O621       C1356   1.275       .  A
O622        C638   1.275   1_455  A
O622       Zn628   2.020       .  S
C623        O639   1.275   1_655  A
C623       O1372   1.274       .  A
C623       C1351   1.468   1_655  S
O624        C637   1.273       .  A
O624       Cd631   2.070       .  S
O625        C643   1.274       .  A
O625       Cd634   2.065       .  S
O626        C640   1.273       .  A
O626       Cd630   2.072       .  S
O627       C1374   1.274       .  A
O627       Cd630   2.068       .  S
Zn628       O639   2.022       .  S
Zn628       O641   2.026       .  S
Zn628       O633   1.949       .  S
O629        C640   1.273       .  A
O629       Cd634   2.070       .  S
Cd630       O632   2.067       .  S
Cd630      O1369   2.000       .  S
Cd631       O635   2.066       .  S
Cd631       O644   2.068       .  S
Cd631       O633   2.000       .  S
O632        C642   1.274       .  A
O633      Cd1366   2.000   1_455  S
O633      Cd1370   2.001   1_455  S
Cd634       O636   2.065       .  S
Cd634      O1369   2.001       .  S
O635       C1378   1.274       .  A
O636       C1359   1.274       .  A
C637        O641   1.274       .  A
C637        C732   1.461       .  S
C638       O1363   1.274       .  A
C638       C1313   1.468   1_655  S
C640        C729   1.460       .  S
C642       O1371   1.274       .  A
C642       C1356   1.466       .  S
C643       O1380   1.275       .  A
C643       C1332   1.467       .  S
O644       C1379   1.275       .  A
O645        C661   1.273       .  A
O645       Zn651   2.023       .  S
C646        O662   1.274       .  A
O647       Cd654   2.069       .  S
O648       Cd657   2.069       .  S
O649       Cd653   2.072       .  S
O650       Cd653   2.068       .  S
Zn651       O662   2.023       .  S
Zn651       O664   2.020       .  S
Zn651       O656   1.952       .  S
O652       Cd657   2.070       .  S
Cd653       O655   2.069       .  S
Cd654       O658   2.072       .  S
Cd654       O667   2.075       .  S
Cd657       O659   2.066       .  S
O658        C665   1.273   1_565  A
C660        O664   1.274       .  A
C666        O667   1.274   1_554  A
O668        C684   1.274       .  A
O668       Zn674   2.025       .  S
C669        O685   1.274       .  A
O670       Cd677   2.070       .  S
O671        C689   1.273       .  A
O671       Cd680   2.069       .  S
O672       Cd676   2.070       .  S
O673        C684   1.273       .  A
O673       Cd676   2.068       .  S
Zn674       O685   2.024       .  S
Zn674       O687   2.021       .  S
Zn674       O679   1.950       .  S
O675        C686   1.274       .  A
O675       Cd680   2.068       .  S
Cd676       O678   2.068       .  S
Cd676       O679   2.002       .  S
Cd677       O681   2.072       .  S
Cd677       O690   2.074       .  S
Cd680       O682   2.067       .  S
O681        C688   1.274       .  A
C683        O687   1.275       .  A
C684        C735   1.460       .  S
C689        O690   1.274       .  A
C689        C730   1.460       .  S
O691        C707   1.273       .  A
O691       Zn697   2.023       .  S
C692        O708   1.274       .  A
C692        O705   1.273       .  A
C692        C734   1.460       .  S
O693       Cd700   2.071       .  S
O694       Cd703   2.067       .  S
O695        C709   1.275   1_556  A
O695       Cd699   2.072       .  S
O696       Cd699   2.069       .  S
Zn697       O708   2.026       .  S
Zn697       O710   2.020       .  S
Zn697       O702   1.951       .  S
O698       Cd703   2.067       .  S
Cd699       O701   2.070       .  S
Cd700       O704   2.072       .  S
Cd700       O713   2.075       .  S
O701        C711   1.273       .  A
O702       Cd703   2.003       .  S
Cd703       O705   2.066       .  S
O704        C711   1.274       .  A
C706        O710   1.274       .  A
C711        C715   1.459       .  S
C712        O713   1.274   1_554  A
O714        C730   1.273       .  A
O714       Zn720   2.019       .  S
C715        O731   1.273       .  A
C715        O728   1.273       .  A
O716        C729   1.274       .  A
O716       Cd723   2.071       .  S
O717        C735   1.274       .  A
O717       Cd726   2.071       .  S
O718        C732   1.274       .  A
O718       Cd722   2.076       .  S
O719        C730   1.274       .  A
O719       Cd722   2.071       .  S
Zn720       O731   2.020       .  S
Zn720       O733   2.019       .  S
Zn720       O725   1.952       .  S
O721        C732   1.274       .  A
O721       Cd726   2.072       .  S
Cd722       O724   2.072       .  S
Cd722       O725   2.004       .  S
Cd723       O727   2.072       .  S
Cd723       O736   2.075       .  S
Cd723       O725   2.006       .  S
O724        C734   1.274       .  A
O725       Cd726   2.005       .  S
Cd726       O728   2.069       .  S
O727        C734   1.274       .  A
C729        O733   1.273       .  A
C735        O736   1.274       .  A
O737        C753   1.273   1_655  A
O737       Zn743   2.020       .  S
C738        O754   1.273   1_455  A
O739       C1304   1.275       .  A
O739       Cd746   2.070       .  S
O740       C1126   1.273       .  A
O740       Cd749   2.069       .  S
O741        C939   1.275       .  A
O741       Cd745   2.070       .  S
O742       Cd745   2.067       .  S
Zn743       O754   2.020       .  S
Zn743       O756   2.018       .  S
Zn743       O748   1.950   1_655  S
O744       C1123   1.275       .  A
O744       Cd749   2.072       .  S
Cd745       O747   2.068       .  S
Cd746       O750   2.075       .  S
Cd746       O759   2.073       .  S
Cd746      O1300   2.004   1_655  S
O747        C941   1.273       .  A
O748      Cd1298   2.004   1_455  S
Cd749       O751   2.069       .  S
C752       O1291   1.275       .  A
C752        O756   1.274       .  A
C752       C1396   1.468       .  S
C755        O925   1.275   1_554  A
C755       O1112   1.275   1_545  A
C755       C1399   1.469       .  S
C757        O931   1.273   1_554  A
C758       O1108   1.273   1_545  A
O760        C776   1.274   1_655  A
O760       Zn766   2.025       .  S
C761        O777   1.275   1_455  A
O762       C1143   1.275       .  A
O762       Cd769   2.069       .  S
O763       C1149   1.273       .  A
O763       Cd772   2.070       .  S
O764        C778   1.274   1_545  A
O764       Cd768   2.067       .  S
O765       Cd768   2.066       .  S
Zn766       O777   2.020       .  S
Zn766       O779   2.021       .  S
Zn766       O771   1.949       .  S
O767       C1146   1.275       .  A
O767       Cd772   2.071       .  S
Cd768       O770   2.064       .  S
Cd769       O773   2.070       .  S
Cd769       O782   2.070       .  S
Cd769      O1139   2.002   1_545  S
O770        C780   1.274       .  A
O771      Cd1137   2.002       .  S
Cd772       O774   2.068       .  S
C775       O1130   1.275       .  A
C775        O779   1.274       .  A
C775       C1235   1.469       .  S
C778       O1135   1.275       .  A
C778       C1238   1.468       .  S
C781       O1131   1.273   1_545  A
O783        C799   1.275   1_655  A
O783       Zn789   2.021       .  S
C784        O800   1.273   1_455  A
O785        C982   1.275       .  A
O785       Cd792   2.069       .  S
O786        C804   1.274       .  A
O786       Cd795   2.066       .  S
O787        C985   1.274       .  A
O787       Cd791   2.069       .  S
O788       Cd791   2.066       .  S
Zn789       O800   2.023       .  S
Zn789       O802   2.020       .  S
Zn789       O794   1.948       .  S
O790        C801   1.275   1_554  A
O790       Cd795   2.070       .  S
Cd791       O793   2.068       .  S
Cd792       O796   2.072       .  S
Cd792       O805   2.068       .  S
Cd792       O978   2.003   1_554  S
O793        C987   1.273       .  A
O794       Cd976   2.003       .  S
Cd795       O797   2.068       .  S
C798        O969   1.275       .  A
C798        O802   1.274       .  A
C798       C1074   1.469       .  S
C801        O971   1.274       .  A
C801       C1077   1.468   1_556  S
C803        O977   1.273   1_554  A
O806        C822   1.275       .  A
O806       Zn812   2.020       .  S
C807        O823   1.275       .  A
O808        C821   1.273       .  A
O808       Cd815   2.070       .  S
O809        C827   1.274   1_655  A
O809       Cd818   2.065       .  S
O810        C824   1.273       .  A
O810       Cd814   2.072       .  S
O811       Cd814   2.068       .  S
Zn812       O823   2.022       .  S
Zn812       O825   2.026       .  S
Zn812       O817   1.949       .  S
O813        C824   1.273       .  A
O813       Cd818   2.070       .  S
Cd814       O816   2.067       .  S
Cd815       O819   2.066       .  S
Cd815       O828   2.068       .  S
Cd815       O817   2.000       .  S
O816        C826   1.274   1_655  A
Cd818       O820   2.065       .  S
C821        O825   1.274       .  A
C821        C916   1.461       .  S
C824        C913   1.460       .  S
O829        C845   1.273   1_554  A
O829       Zn835   2.023       .  S
C830        O846   1.274   1_565  A
C830       O1211   1.273       .  A
C830       C1240   1.459       .  S
O831       C1396   1.275       .  A
O831       Cd838   2.069       .  S
O832       C1034   1.273       .  A
O832       Cd841   2.069       .  S
O833       C1215   1.275       .  A
O833       Cd837   2.072       .  S
O834       C1029   1.273       .  A
O834       Cd837   2.068       .  S
Zn835       O846   2.023       .  S
Zn835       O848   2.020       .  S
Zn835       O840   1.952       .  S
O836       C1031   1.275       .  A
O836       Cd841   2.070       .  S
Cd837       O839   2.069       .  S
Cd837      O1024   2.002       .  S
Cd838       O842   2.072       .  S
Cd838       O851   2.075       .  S
Cd838      O1392   2.003       .  S
O839       C1217   1.273       .  A
O840      Cd1021   2.002   1_554  S
O840      Cd1390   2.003   1_544  S
O840      Cd1209   2.003   1_545  S
Cd841       O843   2.066       .  S
Cd841      O1208   2.003       .  S
O842        C849   1.273       .  A
O843       C1198   1.273       .  A
C844       O1383   1.275   1_544  A
C844        O848   1.274       .  A
C844       C1304   1.468       .  S
C845       O1018   1.273       .  A
C845       C1080   1.459   1_556  S
C847       O1201   1.275       .  A
C847       O1020   1.275       .  A
C847       C1307   1.469       .  S
C849       O1207   1.273       .  A
C849       C1221   1.459       .  S
C850       O1016   1.273       .  A
C850        O851   1.274       .  A
C850       C1075   1.460       .  S
O852        C868   1.274       .  A
O852       Zn858   2.025       .  S
C853        O869   1.274   1_565  A
C853       O1234   1.273       .  A
C853       C1217   1.459   1_565  S
O854       C1235   1.275       .  A
O854       Cd861   2.070       .  S
O855        C873   1.273       .  A
O855       Cd864   2.069       .  S
O856       C1238   1.275   1_545  A
O856       Cd860   2.070       .  S
O857        C868   1.273       .  A
O857       Cd860   2.068       .  S
Zn858       O869   2.024       .  S
Zn858       O871   2.021       .  S
Zn858       O863   1.950   1_545  S
O859        C870   1.274       .  A
O859       Cd864   2.068       .  S
Cd860       O862   2.068       .  S
Cd860       O863   2.002   1_545  S
Cd861       O865   2.072       .  S
Cd861       O874   2.074       .  S
Cd861      O1231   2.003       .  S
O862       C1240   1.273   1_545  A
O863      Cd1229   2.003       .  S
O863      Cd1232   2.004       .  S
Cd864       O866   2.067       .  S
Cd864      O1231   2.004       .  S
O865        C872   1.274       .  A
O866       C1221   1.273       .  A
C867       O1222   1.275       .  A
C867        O871   1.275   1_565  A
C867       C1143   1.469   1_565  S
C868        C919   1.460       .  S
C870       O1224   1.275       .  A
C870       C1146   1.468       .  S
C872       O1230   1.273       .  A
C872       C1198   1.459       .  S
C873        O874   1.274       .  A
C873        C914   1.460       .  S
O875        C891   1.273   1_554  A
O875       Zn881   2.023       .  S
C876        O892   1.274       .  A
C876        O889   1.273       .  A
C876        C918   1.460       .  S
O877       C1074   1.275       .  A
O877       Cd884   2.071       .  S
O878       C1080   1.273       .  A
O878       Cd887   2.067       .  S
O879        C893   1.275       .  A
O879       Cd883   2.072       .  S
O880       C1075   1.273       .  A
O880       Cd883   2.069       .  S
Zn881       O892   2.026       .  S
Zn881       O894   2.020       .  S
Zn881       O886   1.951       .  S
O882       C1077   1.274       .  A
O882       Cd887   2.067       .  S
Cd883       O885   2.070       .  S
Cd883      O1070   2.003       .  S
Cd884       O888   2.072       .  S
Cd884       O897   2.075       .  S
Cd884      O1070   2.004       .  S
O885        C895   1.273       .  A
O886      Cd1067   2.003   1_554  S
O886      Cd1068   2.004   1_554  S
O886       Cd887   2.003       .  S
Cd887       O889   2.066       .  S
O888        C895   1.274       .  A
C890       O1061   1.275       .  A
C890        O894   1.274   1_556  A
C890        C982   1.469   1_556  S
C891       O1064   1.273       .  A
C891       C1034   1.460   1_556  S
C893       O1066   1.274       .  A
C893        C985   1.468       .  S
C895        C899   1.459       .  S
C896       O1062   1.273       .  A
C896        O897   1.274       .  A
C896       C1029   1.459       .  S
O898        C914   1.273       .  A
O898       Zn904   2.019       .  S
C899        O915   1.273       .  A
C899        O912   1.273       .  A
O900        C913   1.274       .  A
O900       Cd907   2.071       .  S
O901        C919   1.274       .  A
O901       Cd910   2.071       .  S
O902        C916   1.274       .  A
O902       Cd906   2.076       .  S
O903        C914   1.274       .  A
O903       Cd906   2.071       .  S
Zn904       O915   2.020       .  S
Zn904       O917   2.019       .  S
Zn904       O909   1.952       .  S
O905        C916   1.274       .  A
O905       Cd910   2.072       .  S
Cd906       O908   2.072       .  S
Cd906       O909   2.004       .  S
Cd907       O911   2.072       .  S
Cd907       O920   2.075       .  S
Cd907       O909   2.006       .  S
O908        C918   1.274       .  A
O909       Cd910   2.005       .  S
Cd910       O912   2.069       .  S
O911        C918   1.274       .  A
C913        O917   1.273       .  A
C919        O920   1.274       .  A
O921        C937   1.273   1_655  A
O921       Zn927   2.020       .  S
C922        O938   1.273   1_454  A
O923       C1120   1.275       .  A
O923       Cd930   2.070       .  S
O924       C1310   1.273       .  A
O924       Cd933   2.069       .  S
O925       Cd929   2.070       .  S
O926       Cd929   2.067       .  S
Zn927       O938   2.020       .  S
Zn927       O940   2.018       .  S
Zn927       O932   1.950   1_656  S
O928       C1307   1.275       .  A
O928       Cd933   2.072       .  S
Cd929       O931   2.068       .  S
Cd930       O934   2.075       .  S
Cd930       O943   2.073       .  S
Cd930      O1116   2.004   1_655  S
O932      Cd1114   2.004   1_455  S
Cd933       O935   2.069       .  S
C936       O1107   1.275       .  A
C936        O940   1.274   1_554  A
C936       C1212   1.468       .  S
C939       O1296   1.275   1_545  A
C939       C1215   1.469       .  S
C942       O1292   1.273   1_545  A
O944        C960   1.274   1_655  A
O944       Zn950   2.025       .  S
C945        O961   1.275   1_455  A
O946       C1327   1.275       .  A
O946       Cd953   2.069       .  S
O947       C1333   1.273       .  A
O947       Cd956   2.070       .  S
O948        C962   1.274   1_545  A
O948       Cd952   2.067       .  S
O949       Cd952   2.066       .  S
Zn950       O961   2.020       .  S
Zn950       O963   2.021       .  S
Zn950       O955   1.949       .  S
O951       C1330   1.275       .  A
O951       Cd956   2.071       .  S
Cd952       O954   2.064       .  S
Cd953       O957   2.070       .  S
Cd953       O966   2.070       .  S
Cd953      O1323   2.002   1_545  S
O954        C964   1.274       .  A
O955      Cd1321   2.002       .  S
Cd956       O958   2.068       .  S
C959       O1314   1.275       .  A
C959        O963   1.274       .  A
C959       C1419   1.469       .  S
C962       O1319   1.275       .  A
C962       C1422   1.468       .  S
C965       O1315   1.273   1_545  A
O967        C983   1.275   1_655  A
O967       Zn973   2.021       .  S
C968        O984   1.273   1_454  A
O969       Cd976   2.069       .  S
O970        C988   1.274       .  A
O970       Cd979   2.066       .  S
O971       Cd975   2.069       .  S
O972       Cd975   2.066       .  S
Zn973       O984   2.023       .  S
Zn973       O986   2.020       .  S
Zn973       O978   1.948       .  S
O974        C985   1.275       .  A
O974       Cd979   2.070       .  S
Cd975       O977   2.068       .  S
Cd976       O980   2.072       .  S
Cd976       O989   2.068       .  S
Cd979       O981   2.068       .  S
C982        O986   1.274   1_554  A
O990       C1006   1.275       .  A
O990       Zn996   2.020       .  S
C991       O1007   1.275       .  A
O992       C1005   1.273       .  A
O992       Cd999   2.070       .  S
O993       C1011   1.274   1_655  A
O993      Cd1002   2.065       .  S
O994       C1008   1.273       .  A
O994       Cd998   2.072       .  S
O995       Cd998   2.068       .  S
Zn996      O1007   2.022       .  S
Zn996      O1009   2.026       .  S
Zn996      O1001   1.949       .  S
O997       C1008   1.273       .  A
O997      Cd1002   2.070       .  S
Cd998      O1000   2.067       .  S
Cd999      O1003   2.066       .  S
Cd999      O1012   2.068       .  S
Cd999      O1001   2.000       .  S
O1000      C1010   1.274   1_655  A
Cd1002     O1004   2.065       .  S
C1005      O1009   1.274       .  A
C1005      C1100   1.461       .  S
C1008      C1097   1.460       .  S
O1013      C1029   1.273       .  A
O1013     Zn1019   2.023       .  S
C1014      O1030   1.274   1_565  A
C1014      O1395   1.273       .  A
C1014      C1424   1.459       .  S
O1015      C1212   1.275   1_556  A
O1015     Cd1022   2.069       .  S
O1016     Cd1025   2.069       .  S
O1017      C1399   1.275   1_556  A
O1017     Cd1021   2.072       .  S
O1018     Cd1021   2.068       .  S
Zn1019     O1030   2.023       .  S
Zn1019     O1032   2.020       .  S
Zn1019     O1024   1.952       .  S
O1020     Cd1025   2.070       .  S
Cd1021     O1023   2.069       .  S
Cd1022     O1026   2.072       .  S
Cd1022     O1035   2.075       .  S
Cd1022     O1208   2.003   1_556  S
O1023      C1401   1.273       .  A
O1024     Cd1206   2.003   1_545  S
O1024     Cd1393   2.003   1_545  S
Cd1025     O1027   2.066       .  S
Cd1025     O1392   2.003       .  S
O1026      C1033   1.273       .  A
O1027      C1382   1.273       .  A
C1028      O1199   1.275   1_545  A
C1028      O1032   1.274       .  A
C1028      C1120   1.468       .  S
C1031      O1385   1.275   1_554  A
C1031      C1123   1.469       .  S
C1033      O1391   1.273       .  A
C1033      C1405   1.459       .  S
C1034      O1035   1.274   1_554  A
O1036      C1052   1.274       .  A
O1036     Zn1042   2.025       .  S
C1037      O1053   1.274   1_565  A
C1037      O1418   1.273       .  A
C1037      C1401   1.459   1_565  S
O1038      C1419   1.275       .  A
O1038     Cd1045   2.070       .  S
O1039      C1057   1.273       .  A
O1039     Cd1048   2.069       .  S
O1040      C1422   1.275   1_545  A
O1040     Cd1044   2.070       .  S
O1041      C1052   1.273       .  A
O1041     Cd1044   2.068       .  S
Zn1042     O1053   2.024       .  S
Zn1042     O1055   2.021       .  S
Zn1042     O1047   1.950   1_545  S
O1043      C1054   1.274       .  A
O1043     Cd1048   2.068       .  S
Cd1044     O1046   2.068       .  S
Cd1044     O1047   2.002   1_545  S
Cd1045     O1049   2.072       .  S
Cd1045     O1058   2.074       .  S
Cd1045     O1415   2.003       .  S
O1046      C1424   1.273   1_545  A
O1047     Cd1413   2.003       .  S
O1047     Cd1416   2.004       .  S
Cd1048     O1050   2.067       .  S
Cd1048     O1415   2.004       .  S
O1049      C1056   1.274       .  A
O1050      C1405   1.273       .  A
C1051      O1406   1.275       .  A
C1051      O1055   1.275   1_565  A
C1051      C1327   1.469   1_565  S
C1052      C1103   1.460       .  S
C1054      O1408   1.275       .  A
C1054      C1330   1.468       .  S
C1056      O1414   1.273       .  A
C1056      C1382   1.459       .  S
C1057      O1058   1.274       .  A
C1057      C1098   1.460       .  S
O1059      C1075   1.273       .  A
O1059     Zn1065   2.023       .  S
C1060      O1076   1.274       .  A
C1060      O1073   1.273       .  A
C1060      C1102   1.460       .  S
O1061     Cd1068   2.071       .  S
O1062     Cd1071   2.067       .  S
O1063      C1077   1.275   1_556  A
O1063     Cd1067   2.072       .  S
O1064     Cd1067   2.069       .  S
Zn1065     O1076   2.026       .  S
Zn1065     O1078   2.020       .  S
Zn1065     O1070   1.951       .  S
O1066     Cd1071   2.067       .  S
Cd1067     O1069   2.070       .  S
Cd1068     O1072   2.072       .  S
Cd1068     O1081   2.075       .  S
O1069      C1079   1.273       .  A
O1070     Cd1071   2.003       .  S
Cd1071     O1073   2.066       .  S
O1072      C1079   1.274       .  A
C1074      O1078   1.274       .  A
C1079      C1083   1.459       .  S
C1080      O1081   1.274   1_554  A
O1082      C1098   1.273       .  A
O1082     Zn1088   2.019       .  S
C1083      O1099   1.273       .  A
C1083      O1096   1.273       .  A
O1084      C1097   1.274       .  A
O1084     Cd1091   2.071       .  S
O1085      C1103   1.274       .  A
O1085     Cd1094   2.071       .  S
O1086      C1100   1.274       .  A
O1086     Cd1090   2.076       .  S
O1087      C1098   1.274       .  A
O1087     Cd1090   2.071       .  S
Zn1088     O1099   2.020       .  S
Zn1088     O1101   2.019       .  S
Zn1088     O1093   1.952       .  S
O1089      C1100   1.274       .  A
O1089     Cd1094   2.072       .  S
Cd1090     O1092   2.072       .  S
Cd1090     O1093   2.004       .  S
Cd1091     O1095   2.072       .  S
Cd1091     O1104   2.075       .  S
Cd1091     O1093   2.006       .  S
O1092      C1102   1.274       .  A
O1093     Cd1094   2.005       .  S
Cd1094     O1096   2.069       .  S
O1095      C1102   1.274       .  A
C1097      O1101   1.273       .  A
C1103      O1104   1.274       .  A
O1105      C1121   1.273   1_665  A
O1105     Zn1111   2.020       .  S
C1106      O1122   1.273   1_455  A
O1107     Cd1114   2.070       .  S
O1108     Cd1117   2.069       .  S
O1109      C1307   1.275       .  A
O1109     Cd1113   2.070       .  S
O1110     Cd1113   2.067       .  S
Zn1111     O1122   2.020       .  S
Zn1111     O1124   2.018       .  S
Zn1111     O1116   1.950   1_665  S
O1112     Cd1117   2.072       .  S
Cd1113     O1115   2.068       .  S
Cd1114     O1118   2.075       .  S
Cd1114     O1127   2.073       .  S
O1115      C1309   1.273       .  A
Cd1117     O1119   2.069       .  S
C1120      O1124   1.274   1_545  A
C1123      O1293   1.275   1_554  A
C1125      O1299   1.273   1_554  A
O1128      C1144   1.274   1_665  A
O1128     Zn1134   2.025       .  S
C1129      O1145   1.275   1_455  A
O1130     Cd1137   2.069       .  S
O1131     Cd1140   2.070       .  S
O1132      C1146   1.274       .  A
O1132     Cd1136   2.067       .  S
O1133     Cd1136   2.066       .  S
Zn1134     O1145   2.020       .  S
Zn1134     O1147   2.021       .  S
Zn1134     O1139   1.949       .  S
O1135     Cd1140   2.071       .  S
Cd1136     O1138   2.064       .  S
Cd1137     O1141   2.070       .  S
Cd1137     O1150   2.070       .  S
O1138      C1148   1.274       .  A
Cd1140     O1142   2.068       .  S
C1143      O1147   1.274   1_545  A
O1151      C1167   1.275   1_655  A
O1151     Zn1157   2.021       .  S
C1152      O1168   1.273   1_455  A
O1153      C1350   1.275       .  A
O1153     Cd1160   2.069       .  S
O1154      C1172   1.274       .  A
O1154     Cd1163   2.066       .  S
O1155      C1353   1.274       .  A
O1155     Cd1159   2.069       .  S
O1156     Cd1159   2.066       .  S
Zn1157     O1168   2.023       .  S
Zn1157     O1170   2.020       .  S
Zn1157     O1162   1.948       .  S
O1158      C1169   1.275   1_554  A
O1158     Cd1163   2.070       .  S
Cd1159     O1161   2.068       .  S
Cd1160     O1164   2.072       .  S
Cd1160     O1173   2.068       .  S
Cd1160     O1346   2.003   1_554  S
O1161      C1355   1.273       .  A
O1162     Cd1344   2.003       .  S
Cd1163     O1165   2.068       .  S
C1166      O1337   1.275       .  A
C1166      O1170   1.274       .  A
C1166      C1442   1.469       .  S
C1169      O1339   1.274       .  A
C1169      C1445   1.468   1_556  S
C1171      O1345   1.273   1_554  A
O1174      C1190   1.275       .  A
O1174     Zn1180   2.020       .  S
C1175      O1191   1.275       .  A
O1176      C1189   1.273       .  A
O1176     Cd1183   2.070       .  S
O1177      C1195   1.274   1_655  A
O1177     Cd1186   2.065       .  S
O1178      C1192   1.273       .  A
O1178     Cd1182   2.072       .  S
O1179     Cd1182   2.068       .  S
Zn1180     O1191   2.022       .  S
Zn1180     O1193   2.026       .  S
Zn1180     O1185   1.949       .  S
O1181      C1192   1.273       .  A
O1181     Cd1186   2.070       .  S
Cd1182     O1184   2.067       .  S
Cd1183     O1187   2.066       .  S
Cd1183     O1196   2.068       .  S
Cd1183     O1185   2.000       .  S
O1184      C1194   1.274   1_655  A
Cd1186     O1188   2.065       .  S
C1189      O1193   1.274       .  A
C1189      C1284   1.461       .  S
C1192      C1281   1.460       .  S
O1197      C1213   1.273   1_554  A
O1197     Zn1203   2.023       .  S
C1198      O1214   1.274       .  A
O1199     Cd1206   2.069       .  S
O1200      C1402   1.273       .  A
O1200     Cd1209   2.069       .  S
O1201     Cd1205   2.072       .  S
O1202      C1397   1.273       .  A
O1202     Cd1205   2.068       .  S
Zn1203     O1214   2.023       .  S
Zn1203     O1216   2.020       .  S
Zn1203     O1208   1.952       .  S
O1204      C1399   1.275   1_565  A
O1204     Cd1209   2.070       .  S
Cd1205     O1207   2.069       .  S
Cd1205     O1392   2.002       .  S
Cd1206     O1210   2.072       .  S
Cd1206     O1219   2.075       .  S
O1208     Cd1389   2.002   1_554  S
Cd1209     O1211   2.066       .  S
O1210      C1217   1.273   1_565  A
C1212      O1216   1.274       .  A
C1213      O1386   1.273       .  A
C1213      C1448   1.459   1_556  S
C1215      O1388   1.275   1_545  A
C1218      O1384   1.273       .  A
C1218      O1219   1.274       .  A
C1218      C1443   1.460       .  S
O1220      C1236   1.274       .  A
O1220     Zn1226   2.025       .  S
C1221      O1237   1.274       .  A
O1222     Cd1229   2.070       .  S
O1223      C1241   1.273       .  A
O1223     Cd1232   2.069       .  S
O1224     Cd1228   2.070       .  S
O1225      C1236   1.273       .  A
O1225     Cd1228   2.068       .  S
Zn1226     O1237   2.024       .  S
Zn1226     O1239   2.021       .  S
Zn1226     O1231   1.950       .  S
O1227      C1238   1.274       .  A
O1227     Cd1232   2.068       .  S
Cd1228     O1230   2.068       .  S
Cd1228     O1231   2.002       .  S
Cd1229     O1233   2.072       .  S
Cd1229     O1242   2.074       .  S
Cd1232     O1234   2.067       .  S
O1233      C1240   1.274       .  A
C1235      O1239   1.275       .  A
C1236      C1287   1.460       .  S
C1241      O1242   1.274       .  A
C1241      C1282   1.460       .  S
O1243      C1259   1.273   1_554  A
O1243     Zn1249   2.023       .  S
C1244      O1260   1.274       .  A
C1244      O1257   1.273       .  A
C1244      C1286   1.460       .  S
O1245      C1442   1.275       .  A
O1245     Cd1252   2.071       .  S
O1246      C1448   1.273       .  A
O1246     Cd1255   2.067       .  S
O1247      C1261   1.275       .  A
O1247     Cd1251   2.072       .  S
O1248      C1443   1.273       .  A
O1248     Cd1251   2.069       .  S
Zn1249     O1260   2.026       .  S
Zn1249     O1262   2.020       .  S
Zn1249     O1254   1.951       .  S
O1250      C1445   1.274       .  A
O1250     Cd1255   2.067       .  S
Cd1251     O1253   2.070       .  S
Cd1251     O1438   2.003       .  S
Cd1252     O1256   2.072       .  S
Cd1252     O1265   2.075       .  S
Cd1252     O1438   2.004       .  S
O1253      C1263   1.273       .  A
O1254     Cd1435   2.003   1_554  S
O1254     Cd1436   2.004   1_554  S
O1254     Cd1255   2.003       .  S
Cd1255     O1257   2.066       .  S
O1256      C1263   1.274       .  A
C1258      O1429   1.275       .  A
C1258      O1262   1.274   1_556  A
C1258      C1350   1.469   1_556  S
C1259      O1432   1.273       .  A
C1259      C1402   1.460   1_556  S
C1261      O1434   1.274       .  A
C1261      C1353   1.468       .  S
C1263      C1267   1.459       .  S
C1264      O1430   1.273       .  A
C1264      O1265   1.274       .  A
C1264      C1397   1.459       .  S
O1266      C1282   1.273       .  A
O1266     Zn1272   2.019       .  S
C1267      O1283   1.273       .  A
C1267      O1280   1.273       .  A
O1268      C1281   1.274       .  A
O1268     Cd1275   2.071       .  S
O1269      C1287   1.274       .  A
O1269     Cd1278   2.071       .  S
O1270      C1284   1.274       .  A
O1270     Cd1274   2.076       .  S
O1271      C1282   1.274       .  A
O1271     Cd1274   2.071       .  S
Zn1272     O1283   2.020       .  S
Zn1272     O1285   2.019       .  S
Zn1272     O1277   1.952       .  S
O1273      C1284   1.274       .  A
O1273     Cd1278   2.072       .  S
Cd1274     O1276   2.072       .  S
Cd1274     O1277   2.004       .  S
Cd1275     O1279   2.072       .  S
Cd1275     O1288   2.075       .  S
Cd1275     O1277   2.006       .  S
O1276      C1286   1.274       .  A
O1277     Cd1278   2.005       .  S
Cd1278     O1280   2.069       .  S
O1279      C1286   1.274       .  A
C1281      O1285   1.273       .  A
C1287      O1288   1.274       .  A
O1289      C1305   1.273   1_665  A
O1289     Zn1295   2.020       .  S
C1290      O1306   1.273   1_454  A
O1291     Cd1298   2.070       .  S
O1292     Cd1301   2.069       .  S
O1293     Cd1297   2.070       .  S
O1294     Cd1297   2.067       .  S
Zn1295     O1306   2.020       .  S
Zn1295     O1308   2.018       .  S
Zn1295     O1300   1.950   1_666  S
O1296     Cd1301   2.072       .  S
Cd1297     O1299   2.068       .  S
Cd1298     O1302   2.075       .  S
Cd1298     O1311   2.073       .  S
Cd1301     O1303   2.069       .  S
C1304      O1308   1.274   1_544  A
O1312      C1328   1.274   1_665  A
O1312     Zn1318   2.025       .  S
C1313      O1329   1.275   1_455  A
O1314     Cd1321   2.069       .  S
O1315     Cd1324   2.070       .  S
O1316      C1330   1.274       .  A
O1316     Cd1320   2.067       .  S
O1317     Cd1320   2.066       .  S
Zn1318     O1329   2.020       .  S
Zn1318     O1331   2.021       .  S
Zn1318     O1323   1.949       .  S
O1319     Cd1324   2.071       .  S
Cd1320     O1322   2.064       .  S
Cd1321     O1325   2.070       .  S
Cd1321     O1334   2.070       .  S
O1322      C1332   1.274       .  A
Cd1324     O1326   2.068       .  S
C1327      O1331   1.274   1_545  A
O1335      C1351   1.275   1_655  A
O1335     Zn1341   2.021       .  S
C1336      O1352   1.273   1_454  A
O1337     Cd1344   2.069       .  S
O1338      C1356   1.274       .  A
O1338     Cd1347   2.066       .  S
O1339     Cd1343   2.069       .  S
O1340     Cd1343   2.066       .  S
Zn1341     O1352   2.023       .  S
Zn1341     O1354   2.020       .  S
Zn1341     O1346   1.948       .  S
O1342      C1353   1.275       .  A
O1342     Cd1347   2.070       .  S
Cd1343     O1345   2.068       .  S
Cd1344     O1348   2.072       .  S
Cd1344     O1357   2.068       .  S
Cd1347     O1349   2.068       .  S
C1350      O1354   1.274   1_554  A
O1358      C1374   1.275       .  A
O1358     Zn1364   2.020       .  S
C1359      O1375   1.275       .  A
O1360      C1373   1.273       .  A
O1360     Cd1367   2.070       .  S
O1361      C1379   1.274   1_655  A
O1361     Cd1370   2.065       .  S
O1362      C1376   1.273       .  A
O1362     Cd1366   2.072       .  S
O1363     Cd1366   2.068       .  S
Zn1364     O1375   2.022       .  S
Zn1364     O1377   2.026       .  S
Zn1364     O1369   1.949       .  S
O1365      C1376   1.273       .  A
O1365     Cd1370   2.070       .  S
Cd1366     O1368   2.067       .  S
Cd1367     O1371   2.066       .  S
Cd1367     O1380   2.068       .  S
Cd1367     O1369   2.000       .  S
O1368      C1378   1.274   1_655  A
Cd1370     O1372   2.065       .  S
C1373      O1377   1.274       .  A
C1373      C1468   1.461       .  S
C1376      C1465   1.460       .  S
O1381      C1397   1.273       .  A
O1381     Zn1387   2.023       .  S
C1382      O1398   1.274       .  A
O1383     Cd1390   2.069       .  S
O1384     Cd1393   2.069       .  S
O1385     Cd1389   2.072       .  S
O1386     Cd1389   2.068       .  S
Zn1387     O1398   2.023       .  S
Zn1387     O1400   2.020       .  S
Zn1387     O1392   1.952       .  S
O1388     Cd1393   2.070       .  S
Cd1389     O1391   2.069       .  S
Cd1390     O1394   2.072       .  S
Cd1390     O1403   2.075       .  S
Cd1393     O1395   2.066       .  S
O1394      C1401   1.273   1_565  A
C1396      O1400   1.274       .  A
C1402      O1403   1.274   1_554  A
O1404      C1420   1.274       .  A
O1404     Zn1410   2.025       .  S
C1405      O1421   1.274       .  A
O1406     Cd1413   2.070       .  S
O1407      C1425   1.273       .  A
O1407     Cd1416   2.069       .  S
O1408     Cd1412   2.070       .  S
O1409      C1420   1.273       .  A
O1409     Cd1412   2.068       .  S
Zn1410     O1421   2.024       .  S
Zn1410     O1423   2.021       .  S
Zn1410     O1415   1.950       .  S
O1411      C1422   1.274       .  A
O1411     Cd1416   2.068       .  S
Cd1412     O1414   2.068       .  S
Cd1412     O1415   2.002       .  S
Cd1413     O1417   2.072       .  S
Cd1413     O1426   2.074       .  S
Cd1416     O1418   2.067       .  S
O1417      C1424   1.274       .  A
C1419      O1423   1.275       .  A
C1420      C1471   1.460       .  S
C1425      O1426   1.274       .  A
C1425      C1466   1.460       .  S
O1427      C1443   1.273       .  A
O1427     Zn1433   2.023       .  S
C1428      O1444   1.274       .  A
C1428      O1441   1.273       .  A
C1428      C1470   1.460       .  S
O1429     Cd1436   2.071       .  S
O1430     Cd1439   2.067       .  S
O1431      C1445   1.275   1_556  A
O1431     Cd1435   2.072       .  S
O1432     Cd1435   2.069       .  S
Zn1433     O1444   2.026       .  S
Zn1433     O1446   2.020       .  S
Zn1433     O1438   1.951       .  S
O1434     Cd1439   2.067       .  S
Cd1435     O1437   2.070       .  S
Cd1436     O1440   2.072       .  S
Cd1436     O1449   2.075       .  S
O1437      C1447   1.273       .  A
O1438     Cd1439   2.003       .  S
Cd1439     O1441   2.066       .  S
O1440      C1447   1.274       .  A
C1442      O1446   1.274       .  A
C1447      C1451   1.459       .  S
C1448      O1449   1.274   1_554  A
O1450      C1466   1.273       .  A
O1450     Zn1456   2.019       .  S
C1451      O1467   1.273       .  A
C1451      O1464   1.273       .  A
O1452      C1465   1.274       .  A
O1452     Cd1459   2.071       .  S
O1453      C1471   1.274       .  A
O1453     Cd1462   2.071       .  S
O1454      C1468   1.274       .  A
O1454     Cd1458   2.076       .  S
O1455      C1466   1.274       .  A
O1455     Cd1458   2.071       .  S
Zn1456     O1467   2.020       .  S
Zn1456     O1469   2.019       .  S
Zn1456     O1461   1.952       .  S
O1457      C1468   1.274       .  A
O1457     Cd1462   2.072       .  S
Cd1458     O1460   2.072       .  S
Cd1458     O1461   2.004       .  S
Cd1459     O1463   2.072       .  S
Cd1459     O1472   2.075       .  S
Cd1459     O1461   2.006       .  S
O1460      C1470   1.274       .  A
O1461     Cd1462   2.005       .  S
Cd1462     O1464   2.069       .  S
O1463      C1470   1.274       .  A
C1465      O1469   1.273       .  A
C1471      O1472   1.274       .  A
