geometry optimzed in LAMMPS
_audit_creation_date              2020-12-01 
_audit_creation_method            'lammps2cif' 
_symmetry_space_group_name_H-M    'P1' 
_symmetry_Int_Tables_number       1 
_symmetry_cell_setting            triclinic 
loop_ 
_symmetry_equiv_pos_as_xyz 
  x,y,z 
_cell_length_a                    58.20017825 
_cell_length_b                    58.22850444808343 
_cell_length_c                    58.19604937510589 
_cell_angle_alpha                 89.92268643221011 
_cell_angle_beta                  89.9839579138451 
_cell_angle_gamma                 89.30632169105625 
loop_ 
_atom_site_label 
_atom_site_type_symbol 
_atom_site_fract_x 
_atom_site_fract_y 
_atom_site_fract_z 
_atom_site_charge 
N1          N  0.34268360  0.88440555  0.74190764    -0.07000
N2          N  0.32878344  0.89467971  0.75664792    -0.59100
N3          N  0.36738728  0.83483699  0.72553490    -0.06700
N4          N  0.36877113  0.81246751  0.72900926    -0.61300
N5          N  0.37943118  0.84582480  0.74089219    -0.06300
N6          N  0.38949354  0.83132084  0.75512363    -0.59100
N7          N  0.33088926  0.87360027  0.72621956    -0.06000
N8          N  0.30868146  0.87605360  0.72989016    -0.61600
C9          C  0.30759399  0.88940127  0.74881479     0.95100
C10         C  0.38288216  0.81055521  0.74739905     0.94900
N11         N  0.37609282  0.84337368  0.65529017    -0.07200
N12         N  0.38289853  0.82593726  0.64182323    -0.59700
N13         N  0.32929676  0.87235532  0.67361801    -0.05300
N14         N  0.30681478  0.87276341  0.67310673    -0.61000
N15         N  0.33823117  0.88294281  0.65574651    -0.07200
N16         N  0.32101074  0.89072809  0.64247925    -0.60000
N17         N  0.36494775  0.83476101  0.67298327    -0.05000
N18         N  0.36392581  0.81234768  0.67209111    -0.61100
Mn19       Mn  0.34797065  0.85377178  0.69953559     1.18400
C20         C  0.37498377  0.80661281  0.65280244     0.97200
C21         C  0.30143655  0.88424098  0.65391277     0.97900
N22         N  0.41738235  0.88155375  0.73900591    -0.07300
N23         N  0.43171243  0.86895094  0.75127905    -0.63600
N24         N  0.39130834  0.93141828  0.72434697    -0.06100
N25         N  0.38736672  0.95369537  0.72629740    -0.64200
N26         N  0.38040023  0.92011288  0.74036115    -0.06800
N27         N  0.36856233  0.93424192  0.75348738    -0.63800
N28         N  0.42846786  0.89283068  0.72307634    -0.05700
N29         N  0.45071312  0.88835408  0.72421287    -0.64500
Mn30       Mn  0.38012109  0.88303266  0.74130307     1.10700
C31         C  0.45241783  0.87325565  0.74179901     0.98500
C32         C  0.37291573  0.95507104  0.74444610     0.98500
N33         N  0.37932012  0.92280989  0.65494569    -0.06800
N34         N  0.37063816  0.94001621  0.64223492    -0.62100
N35         N  0.42738507  0.89493910  0.67085432    -0.06100
N36         N  0.44981063  0.89499480  0.66927140    -0.58900
N37         N  0.41778571  0.88337231  0.65401120    -0.07400
N38         N  0.43456065  0.87506833  0.64049824    -0.61700
N39         N  0.39132378  0.93178007  0.67184699    -0.06400
N40         N  0.39125624  0.95424364  0.67107841    -0.58900
Mn41       Mn  0.37789026  0.88306976  0.65308251     1.20200
Mn42       Mn  0.40987872  0.91304227  0.69756653     1.10100
Cl43       Cl  0.37897978  0.88320268  0.69727875    -0.86900
C44         C  0.37843865  0.95958497  0.65275590     0.95500
C45         C  0.45450582  0.88276320  0.65044910     0.95300
N46         N  0.21765710  0.86885485  0.83907709    -0.07000
N47         N  0.22126961  0.87201381  0.81691334    -0.59100
N48         N  0.23073139  0.84339489  0.88919899    -0.06700
N49         N  0.24384622  0.82956318  0.90144698    -0.61300
N50         N  0.21575100  0.83170161  0.87734713    -0.06300
N51         N  0.21841841  0.80947501  0.88114350    -0.59100
N52         N  0.23263724  0.88023189  0.85121828    -0.06000
N53         N  0.24669088  0.89156283  0.83777270    -0.61600
C54         C  0.23932954  0.88643507  0.81643034     0.95100
C55         C  0.23592497  0.80847240  0.89643804     0.94900
N56         N  0.21229760  0.89267784  0.93567422    -0.07200
N57         N  0.21288659  0.88970689  0.95811554    -0.59700
N58         N  0.23026184  0.91795365  0.88706516    -0.05300
N59         N  0.24371775  0.93205113  0.87574795    -0.61000
N60         N  0.21365458  0.92938505  0.89721969    -0.07200
N61         N  0.21543339  0.95158372  0.89335056    -0.60000
N62         N  0.22865426  0.88081980  0.92563144    -0.05000
N63         N  0.24074785  0.86919887  0.94095522    -0.61100
Mn64       Mn  0.23138942  0.88056895  0.88834282     1.18400
C65         C  0.23056276  0.87480689  0.96111866     0.97200
C66         C  0.23418189  0.95296179  0.87978401     0.97900
N67         N  0.16314868  0.83109949  0.87226812    -0.07300
N68         N  0.16151644  0.80870677  0.87073161    -0.63600
N69         N  0.14741384  0.87940787  0.84420224    -0.06100
N70         N  0.13539950  0.88785834  0.82642411    -0.64200
N71         N  0.16512300  0.86766407  0.83598645    -0.06800
N72         N  0.16554960  0.86774530  0.81348106    -0.63800
N73         N  0.14508843  0.84043223  0.88247570    -0.05700
N74         N  0.13067236  0.82353700  0.88815330    -0.64500
Mn75       Mn  0.19047324  0.84952785  0.85594699     1.10700
C76         C  0.14138005  0.80373047  0.88050813     0.98500
C77         C  0.14715359  0.88022678  0.80731027     0.98500
N78         N  0.16133997  0.92956661  0.89669708    -0.06800
N79         N  0.15955848  0.95193772  0.89783510    -0.62100
N80         N  0.14405001  0.88142175  0.92380015    -0.06100
N81         N  0.13158621  0.87231646  0.94082710    -0.58900
N82         N  0.16051502  0.89363336  0.93315079    -0.07400
N83         N  0.15972796  0.89326878  0.95557445    -0.61700
N84         N  0.14420958  0.92040377  0.88526534    -0.06400
N85         N  0.13018956  0.93751010  0.87833397    -0.58900
Mn86       Mn  0.18696414  0.91154293  0.91572411     1.20200
Mn87       Mn  0.14324644  0.88040988  0.88388713     1.10100
Cl88       Cl  0.18738215  0.88045218  0.88587887    -0.86900
C89         C  0.14028588  0.95717895  0.88651569     0.95500
C90         C  0.14189396  0.88007676  0.96063449     0.95300
N91         N  0.42370672  0.71731076  0.89841709    -0.07000
N92         N  0.44611933  0.71950229  0.89580510    -0.59100
N93         N  0.37474733  0.73339326  0.92454138    -0.06700
N94         N  0.36283449  0.74638850  0.93878098    -0.61300
N95         N  0.38559681  0.71703762  0.93572632    -0.06300
N96         N  0.38157361  0.71862858  0.95800294    -0.59100
N97         N  0.41259881  0.73339256  0.88709058    -0.06000
N98         N  0.42704618  0.74683428  0.87628829    -0.61600
C99         C  0.44788827  0.73792153  0.88175731     0.95100
C100        C  0.36714559  0.73695367  0.95957173     0.94900
N101        N  0.32619159  0.72018650  0.87619796    -0.07200
N102        N  0.30399290  0.72301819  0.88003200    -0.59700
N103        N  0.37531482  0.73539396  0.84990272    -0.05300
N104        N  0.38616736  0.74935577  0.83594393    -0.61000
N105        N  0.36338734  0.72049135  0.83821347    -0.07200
N106        N  0.36566124  0.72400370  0.81594112    -0.60000
N107        N  0.33803729  0.73529727  0.88769397    -0.05000
N108        N  0.32432533  0.74864937  0.89982778    -0.61100
Mn109      Mn  0.37527710  0.73510868  0.88724614     1.18400
C110        C  0.30315109  0.74074674  0.89501182     0.97200
C111        C  0.38009404  0.74197285  0.81481076     0.97900
N112        N  0.38653153  0.66432300  0.93413991    -0.07300
N113        N  0.38705561  0.66214458  0.95653885    -0.63600
N114        N  0.41358190  0.64852802  0.88552076    -0.06100
N115        N  0.43064568  0.63583594  0.87646313    -0.64200
N116        N  0.42279205  0.66498409  0.89790603    -0.06800
N117        N  0.44523972  0.66397143  0.89768259    -0.63800
N118        N  0.37492179  0.64771301  0.92423890    -0.05700
N119        N  0.36703570  0.63382037  0.94072360    -0.64500
Mn120      Mn  0.40484628  0.69088376  0.91684908     1.10700
C121        C  0.37499110  0.64324686  0.96082719     0.98500
C122        C  0.45035730  0.64594695  0.88442450     0.98500
N123        N  0.36125501  0.66810926  0.83614249    -0.06800
N124        N  0.36049948  0.66761487  0.81365864    -0.62100
N125        N  0.33407617  0.64961662  0.88307050    -0.06100
N126        N  0.31711428  0.63549884  0.88905116    -0.58900
N127        N  0.32491111  0.66761131  0.87258569    -0.07400
N128        N  0.30248952  0.66624065  0.87112147    -0.61700
N129        N  0.37246521  0.65022803  0.84467115    -0.06400
N130        N  0.37955490  0.63701976  0.82715733    -0.58900
Mn131      Mn  0.34370804  0.69416223  0.85564684     1.20200
Mn132      Mn  0.37380949  0.64716740  0.88435726     1.10100
Cl133      Cl  0.37440596  0.69122423  0.88601137    -0.86900
C134        C  0.37183481  0.64838055  0.80783053     0.95500
C135        C  0.29745355  0.64633950  0.88132534     0.95300
N136        N  0.32363662  0.04062908  0.89534489    -0.07000
N137        N  0.30129207  0.03839940  0.89247051    -0.59100
N138        N  0.37265144  0.02341378  0.92051950    -0.06700
N139        N  0.38270961  0.00834251  0.93417085    -0.61300
N140        N  0.36145394  0.03889491  0.93254448    -0.06300
N141        N  0.36343160  0.03469763  0.95472804    -0.59100
N142        N  0.33492600  0.02525099  0.88328902    -0.06000
N143        N  0.32066242  0.01225991  0.87174534    -0.61600
C144        C  0.29973828  0.02076186  0.87746551     0.95100
C145        C  0.37699140  0.01570011  0.95546393     0.94900
N146        N  0.42053372  0.04090207  0.87172008    -0.07200
N147        N  0.44290980  0.03764730  0.87330034    -0.59700
N148        N  0.37150714  0.02639766  0.84582466    -0.05300
N149        N  0.36087444  0.01314107  0.83105352    -0.61000
N150        N  0.38263243  0.04255902  0.83504068    -0.07200
N151        N  0.38005777  0.04069095  0.81265429    -0.60000
N152        N  0.40950039  0.02481731  0.88276906    -0.05000
N153        N  0.42405250  0.01028043  0.89238914    -0.61100
Mn154      Mn  0.37218419  0.02418467  0.88311212     1.18400
C155        C  0.44480316  0.01859379  0.88643488     0.97200
C156        C  0.36625560  0.02238719  0.81043102     0.97900
N157        N  0.36013015  0.09169841  0.93432794    -0.07300
N158        N  0.35958670  0.09268927  0.95680480    -0.63600
N159        N  0.33251650  0.11023834  0.88715564    -0.06100
N160        N  0.31533855  0.12331366  0.87898907    -0.64200
N161        N  0.32362262  0.09285654  0.89845607    -0.06800
N162        N  0.30118962  0.09361271  0.89843386    -0.63800
N163        N  0.37121337  0.10916762  0.92530276    -0.05700
N164        N  0.37863322  0.12246136  0.94240814    -0.64500
Mn165      Mn  0.34204040  0.06603179  0.91547873     1.10700
C166        C  0.37098817  0.11177570  0.96199127     0.98500
C167        C  0.29586761  0.11245016  0.88640306     0.98500
N168        N  0.38353114  0.09456762  0.83634023    -0.06800
N169        N  0.38315227  0.09594346  0.81394057    -0.62100
N170        N  0.41159569  0.11031103  0.88396868    -0.06100
N171        N  0.42860893  0.12338983  0.89184630    -0.58900
N172        N  0.42074926  0.09351402  0.87172734    -0.07400
N173        N  0.44318694  0.09479450  0.87068266    -0.61700
N174        N  0.37210968  0.11161523  0.84605674    -0.06400
N175        N  0.36355229  0.12516308  0.82943101    -0.58900
Mn176      Mn  0.40207359  0.06790511  0.85358613     1.20200
Mn177      Mn  0.37188512  0.11220434  0.88572310     1.10100
Cl178      Cl  0.37214183  0.06811649  0.88465111    -0.86900
C179        C  0.37090344  0.11491587  0.80938712     0.95500
C180        C  0.44824734  0.11334136  0.88308780     0.95300
N181        N  0.38016407  0.82640272  0.04662903    -0.07000
N182        N  0.37720454  0.80405024  0.04466805    -0.59100
N183        N  0.40472963  0.87438499  0.02742419    -0.06700
N184        N  0.41747896  0.88489467  0.01212843    -0.61300
N185        N  0.41761085  0.86375119  0.04262404    -0.06300
N186        N  0.43959459  0.86661143  0.03790090    -0.59100
N187        N  0.36736703  0.83752935  0.03170832    -0.06000
N188        N  0.35532544  0.82314644  0.01930972    -0.61600
C189        C  0.36144734  0.80229985  0.02766847     0.95100
C190        C  0.43917912  0.88005696  0.01888958     0.94900
N191        N  0.35814666  0.92412947  0.04579039    -0.07200
N192        N  0.36095337  0.94629299  0.04223317    -0.59700
N193        N  0.33038721  0.87529697  0.03337925    -0.05300
N194        N  0.31501182  0.86473365  0.02078992    -0.61000
N195        N  0.32035611  0.88758589  0.04940273    -0.07200
N196        N  0.29782171  0.88589277  0.04802481    -0.60000
N197        N  0.36801566  0.91205567  0.02948750    -0.05000
N198        N  0.37806074  0.92560514  0.01455598    -0.61100
Mn199      Mn  0.36753341  0.87473485  0.02973632     1.18400
C200        C  0.37359483  0.94688426  0.02275859     0.97200
C201        C  0.29477672  0.87135657  0.03022985     0.97900
N202        N  0.42167740  0.86362373  0.09579301    -0.07300
N203        N  0.44424147  0.86340839  0.09604922    -0.63600
N204        N  0.37502656  0.83643423  0.11638610    -0.06100
N205        N  0.36826448  0.81938071  0.13026263    -0.64200
N206        N  0.38583308  0.82717257  0.09871354    -0.06800
N207        N  0.38671216  0.80474373  0.10002237    -0.63800
N208        N  0.41301291  0.87513124  0.11336266    -0.05700
N209        N  0.43035770  0.88318796  0.12590770    -0.64500
Mn210      Mn  0.40167722  0.84507753  0.07095291     1.10700
C211        C  0.44978388  0.87558349  0.11472781     0.98500
C212        C  0.37591567  0.79960127  0.11956102     0.98500
N213        N  0.32381310  0.88991531  0.10143625    -0.06800
N214        N  0.30144482  0.89043822  0.10328720    -0.62100
N215        N  0.37237798  0.91635735  0.11543152    -0.06100
N216        N  0.38086567  0.93336324  0.12826274    -0.58900
N217        N  0.36022291  0.92566445  0.09864604    -0.07400
N218        N  0.35995159  0.94816838  0.09967175    -0.61700
N219        N  0.33362548  0.87788077  0.11800709    -0.06400
N220        N  0.31700289  0.86977167  0.13166565    -0.58900
Mn221      Mn  0.34055410  0.90708952  0.07389637     1.20200
Mn222      Mn  0.37352767  0.87639465  0.11758487     1.10100
Cl223      Cl  0.37089611  0.87584391  0.07334926    -0.86900
C224        C  0.29691641  0.87804276  0.12199545     0.95500
C225        C  0.37271949  0.95320602  0.11804959     0.95300
N226        N  0.53739013  0.88808598  0.83250434    -0.07000
N227        N  0.53615325  0.88439423  0.81019158    -0.59100
N228        N  0.51877280  0.91507476  0.87989236    -0.06700
N229        N  0.50435796  0.92929874  0.89012476    -0.61300
N230        N  0.53478820  0.92642973  0.86910093    -0.06300
N231        N  0.53155605  0.94875612  0.87143124    -0.59100
N232        N  0.52155609  0.87658810  0.84341737    -0.06000
N233        N  0.50920308  0.86466017  0.82888728    -0.61600
C234        C  0.51861636  0.86951885  0.80824166     0.95100
C235        C  0.51263924  0.95021176  0.88483600     0.94900
N236        N  0.53303552  0.86852405  0.93041062    -0.07200
N237        N  0.52850468  0.87122822  0.95247518    -0.59700
N238        N  0.52010431  0.84044001  0.88171904    -0.05300
N239        N  0.50675945  0.82569661  0.87122641    -0.61000
N240        N  0.53540630  0.82963179  0.89432171    -0.07200
N241        N  0.53281298  0.80719847  0.89287652    -0.60000
N242        N  0.51757915  0.87917585  0.91785880    -0.05000
N243        N  0.50228295  0.88960335  0.93094656    -0.61100
Mn244      Mn  0.51878305  0.87780329  0.88059911     1.18400
C245        C  0.50934366  0.88464518  0.95252901     0.97200
C246        C  0.51500095  0.80500667  0.87816241     0.97900
N247        N  0.58748801  0.92720529  0.86994968    -0.07300
N248        N  0.58840332  0.94966322  0.86922751    -0.63600
N249        N  0.60634122  0.87869604  0.84393162    -0.06100
N250        N  0.61999172  0.87026349  0.82733472    -0.64200
N251        N  0.58951634  0.89043109  0.83408603    -0.06800
N252        N  0.59125706  0.89050544  0.81165430    -0.63800
N253        N  0.60458324  0.91816201  0.88191829    -0.05700
N254        N  0.61757964  0.93530299  0.88971295    -0.64500
Mn255      Mn  0.56227955  0.90831855  0.85125986     1.10700
C256        C  0.60707103  0.95493165  0.88141028     0.98500
C257        C  0.61016311  0.87808981  0.80721456     0.98500
N258        N  0.58777830  0.82988383  0.89744621    -0.06800
N259        N  0.58877866  0.80742436  0.89813206    -0.62100
N260        N  0.60357623  0.87819560  0.92357202    -0.06100
N261        N  0.61653353  0.88592904  0.94085650    -0.58900
N262        N  0.58583739  0.86747375  0.93247487    -0.07400
N263        N  0.58622941  0.86759812  0.95494426    -0.61700
N264        N  0.60518434  0.83860050  0.88599270    -0.06400
N265        N  0.61850673  0.82119579  0.87858473    -0.58900
Mn266      Mn  0.56056754  0.84876784  0.91392724     1.20200
Mn267      Mn  0.60682839  0.87834486  0.88386732     1.10100
Cl268      Cl  0.56270214  0.87830809  0.88245229    -0.86900
C269        C  0.60779701  0.80175560  0.88649840     0.95500
C270        C  0.60521710  0.87899744  0.96039661     0.95300
N271        N  0.87031009  0.33708314  0.65378923    -0.07000
N272        N  0.87908803  0.32002568  0.64092652    -0.59100
N273        N  0.82180649  0.36425329  0.67111132    -0.06700
N274        N  0.79931053  0.36504809  0.67070714    -0.61300
N275        N  0.83090044  0.37613795  0.65415433    -0.06300
N276        N  0.81373772  0.38545584  0.64178158    -0.59100
N277        N  0.85876796  0.32788476  0.67085569    -0.06000
N278        N  0.85926522  0.30545931  0.67012711    -0.61600
C279        C  0.87189957  0.30028330  0.65168395     0.95100
C280        C  0.79403535  0.37818029  0.65255248     0.94900
N281        N  0.83287392  0.37580595  0.73937244    -0.07200
N282        N  0.81826413  0.38671889  0.75285781    -0.59700
N283        N  0.86069847  0.32760705  0.72304442    -0.05300
N284        N  0.86528875  0.30542511  0.72467018    -0.61000
N285        N  0.87176453  0.33900458  0.73885469    -0.07200
N286        N  0.88431864  0.32498996  0.75153421    -0.60000
N287        N  0.82189673  0.36443191  0.72350388    -0.05000
N288        N  0.79949162  0.36707344  0.72585100    -0.61100
Mn289      Mn  0.84052843  0.34579972  0.69710521     1.18400
C290        C  0.79752151  0.38120262  0.74413587     0.97200
C291        C  0.88021034  0.30411079  0.74243786     0.97900
N292        N  0.87168163  0.41633345  0.65388747    -0.07300
N293        N  0.86507825  0.43298590  0.63941080    -0.63600
N294        N  0.91917228  0.38939701  0.67222216    -0.06100
N295        N  0.94164290  0.38827622  0.67247697    -0.64200
N296        N  0.91042502  0.37767902  0.65499121    -0.06800
N297        N  0.92776490  0.36836486  0.64294392    -0.63800
N298        N  0.88238341  0.42580170  0.67138705    -0.05700
N299        N  0.88349358  0.44815853  0.66927984    -0.64500
Mn300      Mn  0.87081004  0.37679647  0.65228144     1.10700
C301        C  0.87284122  0.45276603  0.64943443     0.98500
C302        C  0.94715713  0.37517134  0.65444353     0.98500
N303        N  0.90755085  0.37684343  0.74001559    -0.06800
N304        N  0.92198735  0.36658956  0.75418324    -0.62100
N305        N  0.88018056  0.42529046  0.72453051    -0.06100
N306        N  0.87863705  0.44742849  0.72918491    -0.58900
N307        N  0.86904407  0.41332581  0.73991242    -0.07400
N308        N  0.85940783  0.42687893  0.75520531    -0.61700
N309        N  0.91869814  0.38867020  0.72457222    -0.06400
N310        N  0.94107455  0.38692372  0.72788282    -0.58900
Mn311      Mn  0.87022847  0.37618334  0.74024960     1.20200
Mn312      Mn  0.90020951  0.40763691  0.69809940     1.10100
Cl313      Cl  0.87040634  0.37672458  0.69636782    -0.86900
C314        C  0.94285074  0.37288599  0.74632298     0.95500
C315        C  0.86534824  0.44811349  0.74827432     0.95300
N316        N  0.92284036  0.21824482  0.89388748    -0.07000
N317        N  0.94527787  0.22050737  0.89191298    -0.59100
N318        N  0.87382342  0.23630576  0.91856438    -0.06700
N319        N  0.86324303  0.25103551  0.93217672    -0.61300
N320        N  0.88444991  0.22041422  0.93058893    -0.06300
N321        N  0.88156646  0.22401585  0.95278211    -0.59100
N322        N  0.91203189  0.23398685  0.88184836    -0.06000
N323        N  0.92669680  0.24724703  0.87114786    -0.61600
C324        C  0.94736399  0.23852574  0.87739558     0.95100
C325        C  0.86810811  0.24310284  0.95348801     0.94900
N326        N  0.82617911  0.22091076  0.86978685    -0.07200
N327        N  0.80396678  0.22352896  0.87347899    -0.59700
N328        N  0.87609061  0.23402896  0.84405182    -0.05300
N329        N  0.88839288  0.24645683  0.82985703    -0.61000
N330        N  0.86456348  0.21849417  0.83279667    -0.07200
N331        N  0.86859894  0.22006404  0.81054607    -0.60000
N332        N  0.83776831  0.23652199  0.88085094    -0.05000
N333        N  0.82384091  0.25009261  0.89252502    -0.61100
Mn334      Mn  0.87490516  0.23595858  0.88124545     1.18400
C335        C  0.80284176  0.24167931  0.88788128     0.97200
C336        C  0.88371045  0.23747280  0.80901499     0.97900
N337        N  0.88468190  0.16780625  0.93182088    -0.07300
N338        N  0.88515135  0.16697215  0.95428198    -0.63600
N339        N  0.91229568  0.14894337  0.88439256    -0.06100
N340        N  0.92921898  0.13561481  0.87604614    -0.64200
N341        N  0.92163355  0.16574547  0.89622917    -0.06800
N342        N  0.94409693  0.16419147  0.89654312    -0.63800
N343        N  0.87339340  0.15046727  0.92287667    -0.05700
N344        N  0.86591750  0.13731155  0.94018828    -0.64500
Mn345      Mn  0.90357105  0.19300635  0.91337755     1.10700
C346        C  0.87357976  0.14810159  0.95975450     0.98500
C347        C  0.94897669  0.14552636  0.88407863     0.98500
N348        N  0.86091453  0.16622023  0.83340356    -0.06800
N349        N  0.86053579  0.16464668  0.81096361    -0.62100
N350        N  0.83273843  0.15099448  0.88126731    -0.06100
N351        N  0.81523863  0.13837420  0.88898301    -0.58900
N352        N  0.82413963  0.16849899  0.86955662    -0.07400
N353        N  0.80162835  0.16833770  0.86913331    -0.61700
N354        N  0.87182093  0.14871828  0.84300149    -0.06400
N355        N  0.87923649  0.13469887  0.82623121    -0.58900
Mn356      Mn  0.84370977  0.19359538  0.85114780     1.20200
Mn357      Mn  0.87255110  0.14787847  0.88294218     1.10100
Cl358      Cl  0.87365950  0.19198747  0.88222551    -0.86900
C359        C  0.87188215  0.14513286  0.80622821     0.95500
C360        C  0.79584651  0.14974606  0.88123593     0.95300
N361        N  0.71011795  0.36666058  0.83552822    -0.07000
N362        N  0.71204054  0.36920185  0.81306834    -0.59100
N363        N  0.72782474  0.34146523  0.88442401    -0.06700
N364        N  0.74174022  0.32755146  0.89572205    -0.61300
N365        N  0.71180585  0.32988032  0.87395153    -0.06300
N366        N  0.71450152  0.30768644  0.87765999    -0.59100
N367        N  0.72597735  0.37828809  0.84622035    -0.06000
N368        N  0.73895963  0.38922052  0.83144777    -0.61600
C369        C  0.72998502  0.38359182  0.81085378     0.95100
C370        C  0.73315436  0.30654613  0.89144881     0.94900
N371        N  0.71380081  0.39007987  0.93253732    -0.07200
N372        N  0.71743404  0.38743150  0.95474127    -0.59700
N373        N  0.72750031  0.41584577  0.88279925    -0.05300
N374        N  0.74189746  0.42984323  0.87265149    -0.61000
N375        N  0.71227837  0.42739033  0.89483249    -0.07200
N376        N  0.71605653  0.44964212  0.89334175    -0.60000
N377        N  0.72928700  0.37881924  0.92060084    -0.05000
N378        N  0.74380523  0.36804844  0.93428494    -0.61100
Mn379      Mn  0.72834725  0.37859912  0.88337648     1.18400
C380        C  0.73610951  0.37342422  0.95552884     0.97200
C381        C  0.73448043  0.45091363  0.87921664     0.97900
N382        N  0.65930665  0.32934026  0.87405698    -0.07300
N383        N  0.65775394  0.30695927  0.87304050    -0.63600
N384        N  0.64085871  0.37698625  0.84698950    -0.06100
N385        N  0.62687160  0.38498085  0.83054465    -0.64200
N386        N  0.65749193  0.36493247  0.83719339    -0.06800
N387        N  0.65518502  0.36407694  0.81481140    -0.63800
N388        N  0.64212394  0.33872429  0.88560871    -0.05700
N389        N  0.62832931  0.32188015  0.89271757    -0.64500
Mn390      Mn  0.68474739  0.34746506  0.85497008     1.10700
C391        C  0.63855356  0.30207035  0.88452895     0.98500
C392        C  0.63619025  0.37648719  0.81055629     0.98500
N393        N  0.65963701  0.42747989  0.89816407    -0.06800
N394        N  0.65828673  0.44993320  0.89835870    -0.62100
N395        N  0.64366335  0.38008117  0.92624492    -0.06100
N396        N  0.63083744  0.37255415  0.94373538    -0.58900
N397        N  0.66117146  0.39143135  0.93480131    -0.07400
N398        N  0.66073427  0.39190074  0.95731119    -0.61700
N399        N  0.64224183  0.41819992  0.88718984    -0.06400
N400        N  0.62863093  0.43514310  0.87936594    -0.58900
Mn401      Mn  0.68667911  0.40930190  0.91529336     1.20200
Mn402      Mn  0.64040561  0.37855075  0.88660655     1.10100
Cl403      Cl  0.68444694  0.37851984  0.88505647    -0.86900
C404        C  0.63903206  0.45484866  0.88681950     0.95500
C405        C  0.64195540  0.38019506  0.96307948     0.95300
N406        N  0.03408974  0.39005902  0.83609547    -0.07000
N407        N  0.03045343  0.38740456  0.81384132    -0.59100
N408        N  0.01965231  0.41599520  0.88581174    -0.06700
N409        N  0.00700577  0.43022286  0.89814934    -0.61300
N410        N  0.03523595  0.42720781  0.87422921    -0.06300
N411        N  0.03351053  0.44943122  0.87826146    -0.59100
N412        N  0.01861741  0.37904532  0.84799898    -0.06000
N413        N  0.00426228  0.36846592  0.83436894    -0.61600
C414        C  0.01186969  0.37361819  0.81312988     0.95100
C415        C  0.01594491  0.45098947  0.89339441     0.94900
N416        N  0.03516217  0.36675008  0.93335773    -0.07200
N417        N  0.03243614  0.36896444  0.95574587    -0.59700
N418        N  0.01906028  0.34138066  0.88438151    -0.05300
N419        N  0.00518654  0.32719607  0.87375371    -0.61000
N420        N  0.03507138  0.32992128  0.89545203    -0.07200
N421        N  0.03249578  0.30765324  0.89288513    -0.60000
N422        N  0.01939585  0.37847500  0.92225234    -0.05000
N423        N  0.00561005  0.38920160  0.93667399    -0.61100
Mn424      Mn  0.01843422  0.37877952  0.88507529     1.18400
C425        C  0.01402118  0.38321999  0.95749334     0.97200
C426        C  0.01389480  0.30622691  0.87916685     0.97900
N427        N  0.08774180  0.42698503  0.87153968    -0.07300
N428        N  0.08941702  0.44939890  0.87079006    -0.63600
N429        N  0.10430835  0.37893063  0.84441599    -0.06100
N430        N  0.11771167  0.37095766  0.82747265    -0.64200
N431        N  0.08722405  0.39084406  0.83515156    -0.06800
N432        N  0.08870575  0.39161771  0.81268050    -0.63800
N433        N  0.10486227  0.41739284  0.88304203    -0.05700
N434        N  0.11860073  0.43403216  0.89060645    -0.64500
Mn435      Mn  0.06101067  0.40900828  0.85390638     1.10700
C436        C  0.10856913  0.45395889  0.88252227     0.98500
C437        C  0.10762968  0.37934140  0.80777346     0.98500
N438        N  0.08752268  0.32909357  0.89665962    -0.06800
N439        N  0.08955764  0.30677304  0.89842133    -0.62100
N440        N  0.10466493  0.37644976  0.92374333    -0.06100
N441        N  0.11794906  0.38413063  0.94074557    -0.58900
N442        N  0.08756352  0.36496697  0.93291197    -0.07400
N443        N  0.08873956  0.36439012  0.95533786    -0.61700
N444        N  0.10501855  0.33818257  0.88567927    -0.06400
N445        N  0.11954114  0.32123630  0.87972025    -0.58900
Mn446      Mn  0.06130699  0.34751973  0.91468548     1.20200
Mn447      Mn  0.10650200  0.37773406  0.88417552     1.10100
Cl448      Cl  0.06241485  0.37823680  0.88435432    -0.86900
C449        C  0.10941091  0.30170431  0.88802759     0.95500
C450        C  0.10756798  0.37620173  0.96038906     0.95300
N451        N  0.88562369  0.33337967  0.04427322    -0.07000
N452        N  0.88276025  0.31129500  0.04020341    -0.59100
N453        N  0.91180023  0.38300490  0.03170418    -0.06700
N454        N  0.92619923  0.39359550  0.01801185    -0.61300
N455        N  0.92297602  0.37057211  0.04689698    -0.06300
N456        N  0.94533875  0.37227930  0.04385915    -0.59100
N457        N  0.87478703  0.34581975  0.02885597    -0.06000
N458        N  0.86408543  0.33266092  0.01407775    -0.61600
C459        C  0.86905208  0.31117148  0.02140523     0.95100
C460        C  0.94706470  0.38694316  0.02592537     0.94900
N461        N  0.86139293  0.43039127  0.04889186    -0.07200
N462        N  0.86358228  0.45287949  0.04773377    -0.59700
N463        N  0.83731166  0.38226285  0.03028567    -0.05300
N464        N  0.82398730  0.37142396  0.01580646    -0.61000
N465        N  0.82508863  0.39210542  0.04648030    -0.07200
N466        N  0.80297838  0.38851548  0.04324612    -0.60000
N467        N  0.87390070  0.42024833  0.03309983    -0.05000
N468        N  0.88508547  0.43552392  0.02086179    -0.61100
Mn469      Mn  0.87454159  0.38300643  0.03021456     1.18400
C470        C  0.87862983  0.45579809  0.03033318     0.97200
C471        C  0.80265566  0.37535849  0.02411117     0.97900
N472        N  0.92268897  0.36635964  0.09950311    -0.07300
N473        N  0.94514571  0.36539116  0.10133934    -0.63600
N474        N  0.87483921  0.33916993  0.11487842    -0.06100
N475        N  0.86731494  0.32159022  0.12758059    -0.64200
N476        N  0.88616691  0.33066461  0.09713190    -0.06800
N477        N  0.88660799  0.30818938  0.09726177    -0.63800
N478        N  0.91310961  0.37756225  0.11677316    -0.05700
N479        N  0.92978065  0.38475551  0.13075072    -0.64500
Mn480      Mn  0.90455974  0.34999206  0.07200228     1.10700
C481        C  0.94971250  0.37678106  0.12071941     0.98500
C482        C  0.87493164  0.30229230  0.11607723     0.98500
N483        N  0.82407373  0.39144555  0.09946521    -0.06800
N484        N  0.80167005  0.39263642  0.10132994    -0.62100
N485        N  0.87192959  0.41879168  0.11736565    -0.06100
N486        N  0.88101930  0.43596240  0.12960376    -0.54100
N487        N  0.85945583  0.42794303  0.10075287    -0.07400
N488        N  0.85961495  0.45033364  0.10118472    -0.61700
N489        N  0.83358094  0.38021857  0.11676967    -0.06400
N490        N  0.81681801  0.37340744  0.13090692    -0.58900
Mn491      Mn  0.84215590  0.41049051  0.07394698     1.20200
Mn492      Mn  0.87340835  0.37891313  0.11825921     1.10100
Cl493      Cl  0.87367639  0.38056083  0.07391541    -0.86900
C494        C  0.79692208  0.38150698  0.12081884     0.95500
C495        C  0.87304426  0.45562375  0.11885624     0.95300
N496        N  0.82792670  0.53812300  0.90051088    -0.07000
N497        N  0.80581443  0.53469775  0.89733445    -0.59100
N498        N  0.87682143  0.52711854  0.92928688    -0.06700
N499        N  0.88746709  0.51479453  0.94504801    -0.61300
N500        N  0.86421158  0.54326528  0.93879954    -0.06300
N501        N  0.86569492  0.54215659  0.96142262    -0.59100
N502        N  0.84024037  0.52171429  0.89105177    -0.06000
N503        N  0.82681039  0.50671337  0.88095204    -0.61600
C504        C  0.80539712  0.51514219  0.88492513     0.95100
C505        C  0.88053077  0.52443033  0.96501813     0.94900
N506        N  0.92582280  0.54025450  0.88050888    -0.07200
N507        N  0.94822957  0.53784036  0.88289767    -0.59700
N508        N  0.87881716  0.51977299  0.85517360    -0.05300
N509        N  0.86855783  0.50455862  0.84218770    -0.61000
N510        N  0.88955906  0.53483461  0.84249745    -0.07200
N511        N  0.88699766  0.53022010  0.82050441    -0.60000
N512        N  0.91502285  0.52520555  0.89317256    -0.05000
N513        N  0.92977956  0.51228039  0.90462581    -0.61100
Mn514      Mn  0.87777979  0.52270891  0.89225954     1.18400
C515        C  0.95044791  0.52046193  0.89818330     0.97200
C516        C  0.87373221  0.51136066  0.82062879     0.97900
N517        N  0.86031431  0.59552660  0.93299180    -0.07300
N518        N  0.85935449  0.59865436  0.95521110    -0.63600
N519        N  0.83415488  0.60674581  0.88314064    -0.06100
N520        N  0.81688565  0.61863489  0.87346107    -0.64200
N521        N  0.82530283  0.59038298  0.89596453    -0.06800
N522        N  0.80279735  0.59073519  0.89544390    -0.63800
N523        N  0.87168428  0.61195513  0.92248925    -0.05700
N524        N  0.87905502  0.62670435  0.93840980    -0.64500
Mn525      Mn  0.84423435  0.56688026  0.91726283     1.10700
C526        C  0.87081940  0.61801297  0.95875740     0.98500
C527        C  0.79738060  0.60822799  0.88148871     0.98500
N528        N  0.88812261  0.58712860  0.83606264    -0.06800
N529        N  0.88864599  0.58624637  0.81350888    -0.62100
N530        N  0.91350481  0.61052038  0.88241224    -0.06100
N531        N  0.92945658  0.62594811  0.88799951    -0.58900
N532        N  0.92392451  0.59262238  0.87303379    -0.07400
N533        N  0.94622652  0.59532641  0.87189111    -0.61700
N534        N  0.87590234  0.60482125  0.84351212    -0.06400
N535        N  0.86793537  0.61647681  0.82531303    -0.58900
Mn536      Mn  0.90708232  0.56366713  0.85786108     1.20200
Mn537      Mn  0.87372510  0.61029178  0.88280925     1.10100
Cl538      Cl  0.87571725  0.56643608  0.88751279    -0.86900
C539        C  0.87604078  0.60440973  0.80664872     0.95500
C540        C  0.94988525  0.61601338  0.88107869     0.95300
N541        N  0.83196419  0.88257985  0.23841161    -0.07000
N542        N  0.81647537  0.89428303  0.25020431    -0.59100
N543        N  0.86067423  0.83342078  0.22635348    -0.06700
N544        N  0.86433638  0.81129975  0.22967537    -0.61300
N545        N  0.87052949  0.84551576  0.24244378    -0.06300
N546        N  0.88136744  0.83195187  0.25707597    -0.59100
N547        N  0.82208684  0.87024068  0.22253925    -0.06000
N548        N  0.79960571  0.87308029  0.22315401    -0.61600
C549        C  0.79636174  0.88832450  0.24034881     0.95100
C550        C  0.87742305  0.81065189  0.24881777     0.94900
N551        N  0.87346164  0.83971927  0.15650230    -0.07200
N552        N  0.88158403  0.82247349  0.14354687    -0.59700
N553        N  0.82459780  0.86650318  0.17070066    -0.05300
N554        N  0.80221395  0.86587407  0.16903177    -0.61000
N555        N  0.83397730  0.87787843  0.15358444    -0.07200
N556        N  0.81707212  0.88538089  0.13973512    -0.60000
N557        N  0.86195156  0.83085432  0.17381887    -0.05000
N558        N  0.86187681  0.80836681  0.17313593    -0.61100
Mn559      Mn  0.84223341  0.84998560  0.19840070     1.18400
C560        C  0.87407334  0.80294827  0.15439711     0.97200
C561        C  0.79726183  0.87745449  0.14984152     0.97900
N562        N  0.90644982  0.88322220  0.24311621    -0.07300
N563        N  0.92005423  0.87303604  0.25813251    -0.63600
N564        N  0.88019069  0.93073955  0.22327529    -0.06100
N565        N  0.87686310  0.95311803  0.22472345    -0.64200
N566        N  0.86811924  0.92002870  0.23885550    -0.06800
N567        N  0.85614826  0.93476733  0.25123947    -0.63800
N568        N  0.91849885  0.89377646  0.22740706    -0.05700
N569        N  0.94068171  0.89123257  0.23139924    -0.64500
Mn570      Mn  0.86917659  0.88287604  0.24155207     1.10700
C571        C  0.94134566  0.87805548  0.25052829     0.98500
C572        C  0.86157559  0.95534605  0.24209918     0.98500
N573        N  0.87417049  0.91903280  0.15387761    -0.06800
N574        N  0.86666234  0.93557352  0.13963738    -0.62100
N575        N  0.92162874  0.89244376  0.17482837    -0.06100
N576        N  0.94413930  0.89211923  0.17520585    -0.58900
N577        N  0.91338641  0.88072555  0.15734751    -0.07400
N578        N  0.93110568  0.87222735  0.14527743    -0.61700
N579        N  0.88490521  0.92880085  0.17117082    -0.06400
N580        N  0.88513403  0.95117768  0.16921840    -0.58900
Mn581      Mn  0.87379070  0.87935749  0.15343740     1.20200
Mn582      Mn  0.90159350  0.91164429  0.19915930     1.10100
Cl583      Cl  0.87179500  0.88093299  0.19756945    -0.86900
C584        C  0.87388278  0.95560287  0.14969012     0.95500
C585        C  0.95020431  0.87949481  0.15697792     0.95300
N586        N  0.92031270  0.71613280  0.39618139    -0.07000
N587        N  0.94253797  0.72036733  0.39513999    -0.59100
N588        N  0.87105006  0.72979974  0.42349664    -0.06700
N589        N  0.86053005  0.74302337  0.43857172    -0.61300
N590        N  0.88315591  0.71379828  0.43385719    -0.06300
N591        N  0.88136006  0.71577610  0.45634857    -0.59100
N592        N  0.90844561  0.73246843  0.38599679    -0.06000
N593        N  0.92225216  0.74807633  0.37746386    -0.61600
C594        C  0.94348958  0.74024902  0.38311969     0.95100
C595        C  0.86691476  0.73393362  0.45900074     0.94900
N596        N  0.82253308  0.71582299  0.37438857    -0.07200
N597        N  0.80018015  0.71786045  0.37748091    -0.59700
N598        N  0.87099019  0.73351428  0.34935578    -0.05300
N599        N  0.88206007  0.74813076  0.33637358    -0.61000
N600        N  0.86022448  0.71839636  0.33679866    -0.07200
N601        N  0.86355180  0.72260055  0.31473026    -0.60000
N602        N  0.83350007  0.73095740  0.38673806    -0.05000
N603        N  0.81889054  0.74362038  0.39865319    -0.61100
Mn604      Mn  0.87086170  0.73244224  0.38638886     1.18400
C605        C  0.79815392  0.73515431  0.39281458     0.97200
C606        C  0.87746330  0.74111314  0.31483283     0.97900
N607        N  0.88490425  0.66184896  0.43147607    -0.07300
N608        N  0.88503575  0.66078856  0.45388564    -0.63600
N609        N  0.91146385  0.64596840  0.38328273    -0.06100
N610        N  0.92852676  0.63243667  0.37549384    -0.64200
N611        N  0.92061110  0.66309406  0.39473999    -0.06800
N612        N  0.94302555  0.66174317  0.39512758    -0.63800
N613        N  0.87303586  0.64511086  0.42222846    -0.05700
N614        N  0.86473985  0.63212217  0.43931231    -0.64500
Mn615      Mn  0.90250253  0.68855545  0.41406693     1.10700
C616        C  0.87260811  0.64243502  0.45907538     0.98500
C617        C  0.94818752  0.64278495  0.38324380     0.98500
N618        N  0.85926438  0.66532740  0.33390975    -0.06800
N619        N  0.85890831  0.66480605  0.31139306    -0.62100
N620        N  0.83206812  0.64617684  0.38135780    -0.06100
N621        N  0.81537022  0.63255110  0.38904414    -0.58900
N622        N  0.82252398  0.66350505  0.37012843    -0.07400
N623        N  0.80003135  0.66209476  0.36975419    -0.61700
N624        N  0.87057248  0.64760553  0.34266311    -0.06400
N625        N  0.87829119  0.63457548  0.32531402    -0.58900
Mn626      Mn  0.84092273  0.69080003  0.35343276     1.20200
Mn627      Mn  0.87177680  0.64442975  0.38237812     1.10100
Cl628      Cl  0.87156101  0.68878294  0.38398037    -0.86900
C629        C  0.87072440  0.64575201  0.30584921     0.95500
C630        C  0.79539024  0.64288381  0.38147629     0.95300
N631        N  0.71125498  0.86437370  0.33086363    -0.07000
N632        N  0.71201946  0.86823039  0.30851814    -0.59100
N633        N  0.72920101  0.83792078  0.37921226    -0.06700
N634        N  0.74209790  0.82381711  0.39141372    -0.61300
N635        N  0.71270739  0.82679652  0.36896887    -0.06300
N636        N  0.71409197  0.80465385  0.37375812    -0.59100
N637        N  0.72765024  0.87538783  0.34138542    -0.06000
N638        N  0.73984635  0.88724923  0.32664061    -0.61600
C639        C  0.72986036  0.88272468  0.30624189     0.95100
C640        C  0.73242076  0.80317282  0.38799662     0.94900
N641        N  0.71743117  0.88642126  0.42793759    -0.07200
N642        N  0.72175411  0.88401526  0.45004916    -0.59700
N643        N  0.73071439  0.91213165  0.37818387    -0.05300
N644        N  0.74474884  0.92588368  0.36725440    -0.61000
N645        N  0.71592237  0.92393865  0.39046334    -0.07200
N646        N  0.71960467  0.94613150  0.38838091    -0.60000
N647        N  0.73236546  0.87479039  0.41566976    -0.05000
N648        N  0.74717195  0.86399148  0.42903339    -0.61100
Mn649      Mn  0.73070834  0.87498412  0.37845846     1.18400
C650        C  0.74027530  0.86979092  0.45045514     0.97200
C651        C  0.73753125  0.94706890  0.37363491     0.97900
N652        N  0.66030782  0.82813968  0.37015356    -0.07300
N653        N  0.65894685  0.80573636  0.36998160    -0.63600
N654        N  0.64239514  0.87651102  0.34367481    -0.06100
N655        N  0.62857100  0.88499794  0.32723479    -0.64200
N656        N  0.65883155  0.86432300  0.33370911    -0.06800
N657        N  0.65667076  0.86406190  0.31134441    -0.63800
N658        N  0.64372174  0.83777084  0.38235426    -0.05700
N659        N  0.63053844  0.82105469  0.39082945    -0.64500
Mn660      Mn  0.68579951  0.84561416  0.35064118     1.10700
C661        C  0.64053671  0.80107159  0.38277496     0.98500
C662        C  0.63793479  0.87682273  0.30706433     0.98500
N663        N  0.66354173  0.92573232  0.39507883    -0.06800
N664        N  0.66251950  0.94815566  0.39637908    -0.62100
N665        N  0.64683195  0.87876932  0.42297471    -0.06100
N666        N  0.63381139  0.87228542  0.44071487    -0.58900
N667        N  0.66502391  0.88928834  0.43114264    -0.07400
N668        N  0.66489930  0.89018437  0.45360886    -0.61700
N669        N  0.64530783  0.91718923  0.38489025    -0.06400
N670        N  0.63132517  0.93463765  0.37902216    -0.58900
Mn671      Mn  0.69048753  0.90650385  0.41131747     1.20200
Mn672      Mn  0.64266457  0.87761139  0.38352065     1.10100
Cl673      Cl  0.68677960  0.87623115  0.38098828    -0.86900
C674        C  0.64257926  0.95389417  0.38644749     0.95500
C675        C  0.64557405  0.87969950  0.45975258     0.95300
N676        N  0.03624012  0.88966772  0.33794340    -0.07000
N677        N  0.03167213  0.88743875  0.31587474    -0.59100
N678        N  0.02371463  0.91766498  0.38659696    -0.06700
N679        N  0.01118272  0.93282927  0.39788302    -0.61300
N680        N  0.03925660  0.92795778  0.37416720    -0.06300
N681        N  0.03765747  0.95040726  0.37647238    -0.59100
N682        N  0.02076714  0.87922696  0.35038289    -0.06000
N683        N  0.00540760  0.86943983  0.33718376    -0.61600
C684        C  0.01248384  0.87457596  0.31569710     0.95100
C685        C  0.02023073  0.95314763  0.39154933     0.94900
N686        N  0.03999196  0.87006074  0.43581894    -0.07200
N687        N  0.03814510  0.87364225  0.45812965    -0.59700
N688        N  0.02086031  0.84312625  0.38888981    -0.05300
N689        N  0.00521439  0.82953189  0.38022671    -0.61000
N690        N  0.03660869  0.83117696  0.39988381    -0.07200
N691        N  0.03188743  0.80903012  0.39921536    -0.60000
N692        N  0.02422896  0.88179779  0.42466199    -0.05000
N693        N  0.01137883  0.89377855  0.43893984    -0.61100
Mn694      Mn  0.02164014  0.88046014  0.38761017     1.18400
C695        C  0.02032892  0.88871954  0.45975690     0.97200
C696        C  0.01231184  0.80831046  0.38666107     0.97900
N697        N  0.09138389  0.92664319  0.37056502    -0.07300
N698        N  0.09284869  0.94907413  0.36996150    -0.63600
N699        N  0.10646373  0.87804697  0.34411451    -0.06100
N700        N  0.11974935  0.87062494  0.32681822    -0.64200
N701        N  0.08887434  0.88943694  0.33528971    -0.06800
N702        N  0.08966279  0.89016809  0.31283409    -0.63800
N703        N  0.10854531  0.91714359  0.38203696    -0.05700
N704        N  0.12213058  0.93386467  0.38971551    -0.64500
Mn705      Mn  0.06395312  0.90852238  0.35423891     1.10700
C706        C  0.11194619  0.95377666  0.38173896     0.98500
C707        C  0.10881049  0.87858021  0.30736655     0.98500
N708        N  0.08993966  0.82928973  0.39812920    -0.06800
N709        N  0.09091007  0.80679327  0.39862489    -0.62100
N710        N  0.10921116  0.87721637  0.42337143    -0.06100
N711        N  0.12332929  0.88526030  0.43952478    -0.58900
N712        N  0.09240567  0.86619610  0.43360853    -0.07400
N713        N  0.09463402  0.86619436  0.45598241    -0.61700
N714        N  0.10667186  0.83802151  0.38567657    -0.06400
N715        N  0.11935579  0.82073453  0.37719463    -0.58900
Mn716      Mn  0.06483358  0.84884708  0.41706948     1.20200
Mn717      Mn  0.10945856  0.87750787  0.38376905     1.10100
Cl718      Cl  0.06525510  0.87871697  0.38560171    -0.86900
C719        C  0.10915159  0.80133227  0.38564717     0.95500
C720        C  0.11383707  0.87789037  0.45981591     0.95300
N721        N  0.83102798  0.03246681  0.39523212    -0.07000
N722        N  0.80887887  0.02906499  0.39240052    -0.59100
N723        N  0.88122167  0.01964595  0.42071303    -0.06700
N724        N  0.89327552  0.00659533  0.43485238    -0.61300
N725        N  0.86907810  0.03484898  0.43220641    -0.06300
N726        N  0.87241258  0.03242707  0.45450674    -0.59100
N727        N  0.84313055  0.01726135  0.38376669    -0.06000
N728        N  0.82957564  0.00312200  0.37269036    -0.61600
C729        C  0.80825896  0.01081411  0.37813626     0.95100
C730        C  0.88777715  0.01485919  0.45588272     0.94900
N731        N  0.92750269  0.03829598  0.37121540    -0.07200
N732        N  0.94993941  0.03733709  0.37415887    -0.59700
N733        N  0.87910864  0.02025380  0.34581215    -0.05300
N734        N  0.86665103  0.00787994  0.33169827    -0.61000
N735        N  0.88937763  0.03670063  0.33454379    -0.07200
N736        N  0.88439602  0.03588857  0.31251313    -0.60000
N737        N  0.91741337  0.02196964  0.38278908    -0.05000
N738        N  0.93264241  0.00958844  0.39415214    -0.61100
Mn739      Mn  0.88034545  0.01885483  0.38323004     1.18400
C740        C  0.95280237  0.01945836  0.38869795     0.97200
C741        C  0.87011265  0.01792821  0.31103737     0.97900
N742        N  0.86341374  0.08743529  0.43208393    -0.07300
N743        N  0.86225826  0.08940597  0.45448317    -0.63600
N744        N  0.83549857  0.10230607  0.38400753    -0.06100
N745        N  0.81780636  0.11430966  0.37537859    -0.64200
N746        N  0.82736369  0.08472649  0.39562418    -0.06800
N747        N  0.80487814  0.08431796  0.39522886    -0.63800
N748        N  0.87370645  0.10508274  0.42249951    -0.05700
N749        N  0.88007205  0.11949142  0.43910522    -0.64500
Mn750      Mn  0.84751750  0.05984155  0.41409224     1.10700
C751        C  0.87252063  0.10930445  0.45896946     0.98500
C752        C  0.79878259  0.10264263  0.38269046     0.98500
N753        N  0.88787523  0.08873785  0.33387149    -0.06800
N754        N  0.88763419  0.08990405  0.31139620    -0.62100
N755        N  0.91450257  0.10700626  0.38171078    -0.06100
N756        N  0.93084058  0.12072675  0.38997609    -0.58900
N757        N  0.92456631  0.09049807  0.36979158    -0.07400
N758        N  0.94692186  0.09250844  0.36940690    -0.61700
N759        N  0.87541595  0.10520726  0.34332457    -0.06400
N760        N  0.86620004  0.11805575  0.32653887    -0.58900
Mn761      Mn  0.90759815  0.06350139  0.35213176     1.20200
Mn762      Mn  0.87471856  0.10672383  0.38294266     1.10100
Cl763      Cl  0.87755691  0.06275950  0.38321383    -0.86900
C764        C  0.87418611  0.10807010  0.30663422     0.95500
C765        C  0.95105215  0.11123585  0.38187908     0.95300
N766        N  0.89204975  0.82655877  0.54387198    -0.07000
N767        N  0.88885791  0.80427781  0.54196013    -0.59100
N768        N  0.91761388  0.87559462  0.52854165    -0.06700
N769        N  0.93160894  0.88775228  0.51582429    -0.61300
N770        N  0.92897793  0.86436387  0.54446458    -0.06300
N771        N  0.95117246  0.86843753  0.54288123    -0.59100
N772        N  0.88076153  0.83779272  0.52786502    -0.06000
N773        N  0.86937137  0.82348613  0.51473841    -0.61600
C774        C  0.87454528  0.80267588  0.52380146     0.95100
C775        C  0.95245600  0.88323980  0.52501786     0.94900
N776        N  0.86828585  0.92388089  0.54285715    -0.07200
N777        N  0.87144964  0.94618188  0.54062854    -0.59700
N778        N  0.84355303  0.87495519  0.52625204    -0.05300
N779        N  0.83035561  0.86459594  0.51132561    -0.61000
N780        N  0.83121149  0.88610048  0.54148033    -0.07200
N781        N  0.80908455  0.88373148  0.53714946    -0.60000
N782        N  0.88031061  0.91249364  0.52753095    -0.05000
N783        N  0.89209710  0.92665967  0.51458673    -0.61100
Mn784      Mn  0.88059222  0.87515885  0.52681939     1.18400
C785        C  0.88653342  0.94761738  0.52300768     0.97200
C786        C  0.80890409  0.87001157  0.51835779     0.97900
N787        N  0.92818832  0.86289982  0.59677168    -0.07300
N788        N  0.95063145  0.86308767  0.59781446    -0.63600
N789        N  0.88003530  0.83554079  0.61284179    -0.06100
N790        N  0.87066785  0.81864149  0.62518028    -0.64200
N791        N  0.89259375  0.82614830  0.59640590    -0.06800
N792        N  0.89250083  0.80362637  0.59734403    -0.63800
N793        N  0.91859520  0.87463914  0.61365888    -0.05700
N794        N  0.93545598  0.88320747  0.62669101    -0.64500
Mn795      Mn  0.91071618  0.84472148  0.57037849     1.10700
C796        C  0.95546418  0.87563966  0.61631229     0.98500
C797        C  0.87894736  0.79879097  0.61522210     0.98500
N798        N  0.82960545  0.88727715  0.59446698    -0.06800
N799        N  0.80710442  0.88727254  0.59524216    -0.62100
N800        N  0.87651805  0.91530468  0.61284321    -0.06100
N801        N  0.88358156  0.93253712  0.62627368    -0.58900
N802        N  0.86509761  0.92427765  0.59536582    -0.07400
N803        N  0.86410531  0.94674758  0.59641185    -0.61700
N804        N  0.83881650  0.87605883  0.61196175    -0.06400
N805        N  0.82180332  0.86799345  0.62506033    -0.58900
Mn806      Mn  0.84824499  0.90557116  0.56855473     1.20200
Mn807      Mn  0.87853413  0.87540963  0.61472104     1.10100
Cl808      Cl  0.87946991  0.87522365  0.57072505    -0.86900
C809        C  0.80204823  0.87532345  0.61418966     0.95500
C810        C  0.87553692  0.95215905  0.61553899     0.95300
N811        N  0.12201213  0.09287050  0.49075609    -0.07000
N812        N  0.11003655  0.07895246  0.50388460    -0.59100
N813        N  0.17161233  0.11760952  0.47516003    -0.06700
N814        N  0.19393404  0.12028016  0.47767423    -0.61300
N815        N  0.16021723  0.12968861  0.49042439    -0.06300
N816        N  0.17444986  0.14107900  0.50363385    -0.59100
N817        N  0.13344810  0.08114536  0.47525012    -0.06000
N818        N  0.12969755  0.05902174  0.47740482    -0.61600
C819        C  0.11491553  0.05788465  0.49519999     0.95100
C820        C  0.19541529  0.13517450  0.49537003     0.94900
N821        N  0.16425875  0.12575849  0.40512261    -0.07200
N822        N  0.18168014  0.13293894  0.39202730    -0.59700
N823        N  0.13636878  0.07884039  0.42316949    -0.05300
N824        N  0.13727902  0.05635677  0.42244330    -0.61000
N825        N  0.12563752  0.08765716  0.40521734    -0.07200
N826        N  0.11902089  0.07031662  0.39172830    -0.60000
N827        N  0.17296958  0.11458282  0.42287333    -0.05000
N828        N  0.19546311  0.11380089  0.42234963    -0.61100
Mn829      Mn  0.15375814  0.09787920  0.44919023     1.18400
C830        C  0.20110478  0.12516860  0.40325081     0.97200
C831        C  0.12655187  0.05079656  0.40297119     0.97900
N832        N  0.12348427  0.16771763  0.48869355    -0.07300
N833        N  0.13446370  0.18221785  0.50194891    -0.63600
N834        N  0.07444752  0.14184793  0.47313700    -0.06100
N835        N  0.05211263  0.13859332  0.47491555    -0.64200
N836        N  0.08554947  0.13085492  0.48940960    -0.06800
N837        N  0.07116854  0.11962481  0.50258283    -0.63800
N838        N  0.11234659  0.17875833  0.47245900    -0.05700
N839        N  0.11526972  0.20112294  0.47435343    -0.64500
Mn840      Mn  0.12283973  0.13032631  0.49069436     1.10700
C841        C  0.12934660  0.20298819  0.49271930     0.98500
C842        C  0.05041268  0.12445966  0.49326053     0.98500
N843        N  0.08460335  0.12914664  0.40393381    -0.06800
N844        N  0.06764263  0.12079064  0.39096230    -0.62100
N845        N  0.11167773  0.17701790  0.42008251    -0.06100
N846        N  0.11132635  0.19940500  0.41854865    -0.58900
N847        N  0.12337877  0.16737280  0.40318980    -0.07400
N848        N  0.13134182  0.18413185  0.38962797    -0.61700
N849        N  0.07524278  0.14128939  0.42069602    -0.06400
N850        N  0.05277703  0.14155721  0.41961074    -0.58900
Mn851      Mn  0.12448185  0.12747375  0.40244895     1.20200
Mn852      Mn  0.09321390  0.15994689  0.44655821     1.10100
Cl853      Cl  0.12359109  0.12892921  0.44663933    -0.86900
C854        C  0.04781460  0.12887499  0.40121038     0.95500
C855        C  0.12340200  0.20411900  0.39969468     0.95300
N856        N  0.62659385  0.08887717  0.28193283    -0.07000
N857        N  0.63662107  0.07445712  0.26764627    -0.59100
N858        N  0.57738062  0.11551059  0.29668435    -0.06700
N859        N  0.55509151  0.11847673  0.29339880    -0.61300
N860        N  0.58908284  0.12650757  0.28102089    -0.06300
N861        N  0.57522374  0.13741042  0.26682144    -0.59100
N862        N  0.61505139  0.07778048  0.29764561    -0.06000
N863        N  0.61671539  0.05543595  0.29433565    -0.61600
C864        C  0.63043625  0.05365853  0.27566231     0.95100
C865        C  0.55408367  0.13241639  0.27478197     0.94900
N866        N  0.58576377  0.12624181  0.36665346    -0.07200
N867        N  0.56868374  0.13371364  0.38023065    -0.59700
N868        N  0.61315726  0.07821063  0.35033677    -0.05300
N869        N  0.61248307  0.05583055  0.35223656    -0.61000
N870        N  0.62448830  0.08764219  0.36743911    -0.07200
N871        N  0.63199384  0.07092464  0.38144103    -0.60000
N872        N  0.57668887  0.11470775  0.34948234    -0.05000
N873        N  0.55426035  0.11392847  0.35091178    -0.61100
Mn874      Mn  0.59535665  0.09634615  0.32353543     1.18400
C875        C  0.54907408  0.12563132  0.36998391     0.97200
C876        C  0.62411621  0.05112247  0.37150900     0.97900
N877        N  0.62578158  0.16338837  0.28077453    -0.07300
N878        N  0.61474033  0.17754836  0.26690360    -0.63600
N879        N  0.67481547  0.13713244  0.29675956    -0.06100
N880        N  0.69716374  0.13470820  0.29344232    -0.64200
N881        N  0.66343505  0.12553276  0.28134537    -0.06800
N882        N  0.67758441  0.11475273  0.26729885    -0.63800
N883        N  0.63695880  0.17484751  0.29644392    -0.05700
N884        N  0.63401362  0.19712710  0.29360311    -0.64500
Mn885      Mn  0.62624798  0.12605739  0.28059166     1.10700
C886        C  0.61994536  0.19853085  0.27520317     0.98500
C887        C  0.69859361  0.12042404  0.27512420     0.98500
N888        N  0.66519239  0.12746425  0.36628004    -0.06800
N889        N  0.68230950  0.11793206  0.37850151    -0.62100
N890        N  0.63801476  0.17601091  0.34897765    -0.06100
N891        N  0.63783907  0.19852449  0.34978449    -0.58900
N892        N  0.62637026  0.16697100  0.36612572    -0.07400
N893        N  0.61784088  0.18412428  0.37898818    -0.61700
N894        N  0.67430000  0.13908723  0.34918122    -0.06400
N895        N  0.69672168  0.13803203  0.34935406    -0.58900
Mn896      Mn  0.62549296  0.12719245  0.36850394     1.20200
Mn897      Mn  0.65625974  0.15704939  0.32289959     1.10100
Cl898      Cl  0.62578925  0.12668906  0.32447007    -0.86900
C899        C  0.70193321  0.12502384  0.36751693     0.95500
C900        C  0.62536245  0.20380765  0.36840186     0.95300
N901        N  0.12131149  0.85868218  0.09419171    -0.07000
N902        N  0.13042709  0.87104960  0.07715070    -0.59100
N903        N  0.07293311  0.84448323  0.12209902    -0.06700
N904        N  0.05054166  0.84688991  0.12290345    -0.61300
N905        N  0.08341287  0.86065040  0.13385341    -0.06300
N906        N  0.06744589  0.87437133  0.14333384    -0.59100
N907        N  0.10856118  0.84250399  0.08499847    -0.06000
N908        N  0.10855786  0.84349994  0.06252653    -0.61600
C909        C  0.12202719  0.86120454  0.05744378     0.95100
C910        C  0.04700476  0.86543509  0.13599083     0.94900
N911        N  0.08171384  0.77548763  0.13414678    -0.07200
N912        N  0.06762033  0.76209958  0.14538632    -0.59700
N913        N  0.10708226  0.78965760  0.08439399    -0.05300
N914        N  0.10966652  0.78671732  0.06201096    -0.61000
N915        N  0.11801956  0.77346455  0.09574012    -0.07200
N916        N  0.12847433  0.75922868  0.08157727    -0.60000
N917        N  0.07038225  0.79163583  0.12314192    -0.05000
N918        N  0.04803924  0.78944127  0.12640534    -0.61100
Mn919      Mn  0.08937238  0.81717009  0.10332203     1.18400
C920        C  0.04667792  0.77100845  0.14057439     0.97200
C921        C  0.12323783  0.76769575  0.06060826     0.97900
N922        N  0.12471480  0.85838634  0.17342826    -0.07300
N923        N  0.11780597  0.87195888  0.19070752    -0.63600
N924        N  0.17146929  0.83892460  0.14541762    -0.06100
N925        N  0.19394299  0.83964481  0.14664147    -0.64200
N926        N  0.16274159  0.85694655  0.13465254    -0.06800
N927        N  0.18005998  0.87044231  0.12824830    -0.63800
N928        N  0.13553708  0.84041602  0.18218779    -0.05700
N929        N  0.13630623  0.84121871  0.20462606    -0.64500
Mn930      Mn  0.12308228  0.86051521  0.13391894     1.10700
C931        C  0.12540532  0.86075773  0.21014919     0.98500
C932        C  0.19948580  0.85916110  0.13597081     0.98500
N933        N  0.15584841  0.77158546  0.13183339    -0.06800
N934        N  0.16900643  0.75725198  0.12023772    -0.62100
N935        N  0.13153190  0.78831574  0.18129346    -0.06100
N936        N  0.12871712  0.78577842  0.20362106    -0.58900
N937        N  0.11926222  0.77341819  0.17000911    -0.07400
N938        N  0.10763640  0.76043606  0.18424205    -0.61700
N939        N  0.16829000  0.78650710  0.14292440    -0.06400
N940        N  0.19035386  0.78264681  0.13925725    -0.58900
Mn941      Mn  0.11871811  0.77283847  0.13292857     1.20200
Mn942      Mn  0.15195197  0.81346309  0.16311329     1.10100
Cl943      Cl  0.12082936  0.81660977  0.13319883    -0.86900
C944        C  0.19047142  0.76442270  0.12487396     0.95500
C945        C  0.11354024  0.76844663  0.20514250     0.95300
N946        N  0.08206849  0.62703884  0.36219622    -0.07000
N947        N  0.06504559  0.63415169  0.37601204    -0.59100
N948        N  0.10912339  0.57913000  0.34514591    -0.06700
N949        N  0.10807876  0.55673745  0.34677668    -0.61300
N950        N  0.12051328  0.58824230  0.36238554    -0.06300
N951        N  0.12761662  0.57122750  0.37624556    -0.59100
N952        N  0.07292266  0.61571224  0.34493901    -0.06000
N953        N  0.05052870  0.61470690  0.34648672    -0.61600
C954        C  0.04544273  0.62609846  0.36573436     0.95100
C955        C  0.11953171  0.55161417  0.36603505     0.94900
N956        N  0.12161984  0.59020850  0.27668007    -0.07200
N957        N  0.13284006  0.57556971  0.26346130    -0.59700
N958        N  0.07299073  0.61705499  0.29273361    -0.05300
N959        N  0.05062966  0.61995486  0.29067026    -0.61000
N960        N  0.08392237  0.62824585  0.27665489    -0.07200
N961        N  0.06925549  0.63925900  0.26324275    -0.60000
N962        N  0.11044319  0.57930414  0.29278256    -0.05000
N963        N  0.11349109  0.55696030  0.29088609    -0.61100
Mn964      Mn  0.09125247  0.59766553  0.31883613     1.18400
C965        C  0.12771677  0.55493093  0.27268908     0.97200
C966        C  0.04856177  0.63398546  0.27232322     0.97900
N967        N  0.16152202  0.62874282  0.36188622    -0.07300
N968        N  0.17867425  0.62151888  0.37552443    -0.63600
N969        N  0.13431360  0.67653012  0.34431447    -0.06100
N970        N  0.13510228  0.69895681  0.34557619    -0.64200
N971        N  0.12309548  0.66756731  0.36179129    -0.06800
N972        N  0.11598182  0.68468873  0.37547194    -0.63800
N973        N  0.17054498  0.63974239  0.34431806    -0.05700
N974        N  0.19296891  0.64029796  0.34546056    -0.64500
Mn975      Mn  0.12180843  0.62792827  0.36389845     1.10700
C976        C  0.19826589  0.62904649  0.36476702     0.98500
C977        C  0.12374227  0.70423841  0.36486347     0.98500
N978        N  0.12123490  0.66479864  0.27611499    -0.06800
N979        N  0.11009233  0.67926163  0.26263430    -0.62100
N980        N  0.17013604  0.63775723  0.29185549    -0.06100
N981        N  0.19241810  0.63405698  0.28946417    -0.58900
N982        N  0.15863962  0.62666511  0.27613944    -0.07400
N983        N  0.17271238  0.61496316  0.26275706    -0.61700
N984        N  0.13272582  0.67590193  0.29182362    -0.06400
N985        N  0.12988661  0.69824289  0.28939760    -0.58900
Mn986      Mn  0.12132176  0.62751939  0.27551014     1.20200
Mn987      Mn  0.15213871  0.65768600  0.31803505     1.10100
Cl988      Cl  0.12163497  0.62775182  0.31965665    -0.86900
C989        C  0.11557645  0.70004552  0.27122404     0.95500
C990        C  0.19372051  0.61958119  0.27134632     0.95300
N991        N  0.76894915  0.13275243  0.09459017    -0.07000
N992        N  0.75531350  0.14370685  0.08012948    -0.59100
N993        N  0.78267128  0.08321923  0.12073793    -0.06700
N994        N  0.77866394  0.06105565  0.12245441    -0.61300
N995        N  0.76705165  0.09518205  0.13183302    -0.06300
N996        N  0.75208459  0.08152466  0.14160271    -0.59100
N997        N  0.78449506  0.12073003  0.08344661    -0.06000
N998        N  0.78174373  0.12303941  0.06105251    -0.61600
C999        C  0.76357747  0.13763579  0.05925222     0.95100
C1000       C  0.75962673  0.06029738  0.13570633     0.94900
N1001       N  0.85286665  0.08944885  0.13213813    -0.07200
N1002       N  0.86588343  0.07205915  0.13999599    -0.59700
N1003       N  0.83705379  0.11717225  0.08427036    -0.05300
N1004       N  0.83840193  0.11679119  0.06183632    -0.61000
N1005       N  0.85441306  0.12808580  0.09363318    -0.07200
N1006       N  0.86804956  0.13554395  0.07672531    -0.60000
N1007       N  0.83544068  0.08082347  0.12067590    -0.05000
N1008       N  0.83613382  0.05832865  0.12039498    -0.61100
Mn1009     Mn  0.80996869  0.10026643  0.10212569     1.18400
C1010       C  0.85499770  0.05269397  0.13235611     0.97200
C1011       C  0.85762113  0.12806546  0.05691882     0.97900
N1012       N  0.76809256  0.13184706  0.16943942    -0.07300
N1013       N  0.75440003  0.12075461  0.18353846    -0.63600
N1014       N  0.78599043  0.18025049  0.14358571    -0.06100
N1015       N  0.78464115  0.20262958  0.14025573    -0.64200
N1016       N  0.77006796  0.16969709  0.13189486    -0.06800
N1017       N  0.75757112  0.18456199  0.12014465    -0.63800
N1018       N  0.78410209  0.14245403  0.18097213    -0.05700
N1019       N  0.78164903  0.13904844  0.20321733    -0.64500
Mn1020     Mn  0.76774841  0.13247029  0.13199482     1.10700
C1021       C  0.76313325  0.12536872  0.20454749     0.98500
C1022       C  0.76695849  0.20501726  0.12536855     0.98500
N1023       N  0.85527529  0.16867853  0.13473754    -0.06800
N1024       N  0.86921604  0.18518952  0.12720076    -0.62100
N1025       N  0.83661505  0.14179768  0.18224738    -0.06100
N1026       N  0.83738408  0.14158434  0.20474726    -0.58900
N1027       N  0.85355992  0.12970923  0.17306729    -0.07400
N1028       N  0.86628393  0.12078566  0.19009495    -0.61700
N1029       N  0.83832284  0.17845727  0.14629383    -0.06400
N1030       N  0.84027375  0.20081717  0.14713196    -0.58900
Mn1031     Mn  0.85586294  0.12894352  0.13336265     1.20200
Mn1032     Mn  0.81119551  0.16096069  0.16351204     1.10100
Cl1033     Cl  0.81174764  0.13062205  0.13274254    -0.86900
C1034       C  0.85944929  0.20520063  0.13539207     0.95500
C1035       C  0.85575729  0.12853522  0.20982671     0.95300
N1036       N  0.85315480  0.58624322  0.63136930    -0.07000
N1037       N  0.86644542  0.56864900  0.63827003    -0.59100
N1038       N  0.83499417  0.61439030  0.58448672    -0.06700
N1039       N  0.83569359  0.61360427  0.56198972    -0.61300
N1040       N  0.85293072  0.62491174  0.59317752    -0.06300
N1041       N  0.86627755  0.63171790  0.57580470    -0.59100
N1042       N  0.83508804  0.57792814  0.62070721    -0.06000
N1043       N  0.83558729  0.55546906  0.62008647    -0.61600
C1044       C  0.85500309  0.54949515  0.63091988     0.95100
C1045       C  0.85510137  0.62429707  0.55641777     0.94900
N1046       N  0.76777975  0.63069177  0.59928146    -0.07200
N1047       N  0.75361428  0.64232862  0.58593264    -0.59700
N1048       N  0.78249710  0.58058997  0.62382171    -0.05300
N1049       N  0.77844618  0.55843174  0.62557005    -0.61000
N1050       N  0.76763303  0.59251201  0.63591551    -0.07200
N1051       N  0.75315386  0.57884963  0.64638300    -0.60000
N1052       N  0.78253523  0.61880141  0.58701971    -0.05000
N1053       N  0.77869532  0.62190981  0.56489503    -0.61100
Mn1054     Mn  0.80876610  0.59772461  0.60382572     1.18400
C1055       C  0.76068901  0.63682431  0.56451344     0.97200
C1056       C  0.76021808  0.55763215  0.63993252     0.97900
N1057       N  0.85540005  0.66543890  0.63391747    -0.07300
N1058       N  0.86737858  0.68201457  0.62356020    -0.63600
N1059       N  0.84006609  0.63817650  0.68298441    -0.06100
N1060       N  0.84223439  0.63774488  0.70539307    -0.64200
N1061       N  0.85629071  0.62598997  0.67267806    -0.06800
N1062       N  0.86985798  0.61663639  0.68885960    -0.63800
N1063       N  0.83934514  0.67522325  0.64670939    -0.05700
N1064       N  0.83987975  0.69767740  0.64535855    -0.64500
Mn1065     Mn  0.85631381  0.62564865  0.63276992     1.10700
C1066       C  0.85716699  0.70212327  0.63095147     0.98500
C1067       C  0.86073399  0.62446064  0.70925006     0.98500
N1068       N  0.77073708  0.62857771  0.67357326    -0.06800
N1069       N  0.75714462  0.61743377  0.68757433    -0.62100
N1070       N  0.78716428  0.67726076  0.64793365    -0.06100
N1071       N  0.78607382  0.69960011  0.64419313    -0.58900
N1072       N  0.77085151  0.66676710  0.63675943    -0.07400
N1073       N  0.75835437  0.68155054  0.62494775    -0.61700
N1074       N  0.78707566  0.63881169  0.68499326    -0.06400
N1075       N  0.78478796  0.63507426  0.70729807    -0.58900
Mn1076     Mn  0.76856038  0.62972464  0.63647380     1.20200
Mn1077     Mn  0.81348317  0.65762841  0.66611560     1.10100
Cl1078     Cl  0.81236758  0.62760985  0.63483549    -0.86900
C1079       C  0.76612820  0.62140876  0.70851915     0.95500
C1080       C  0.76809889  0.70191942  0.62964921     0.95300
N1081       N  0.12451799  0.09374002  0.77882249    -0.07000
N1082       N  0.13588324  0.07988400  0.76500809    -0.59100
N1083       N  0.07548642  0.11993108  0.79420583    -0.06700
N1084       N  0.05317596  0.12254152  0.79104224    -0.61300
N1085       N  0.08692364  0.13153220  0.77879872    -0.06300
N1086       N  0.07277152  0.14245834  0.76482460    -0.59100
N1087       N  0.11327453  0.08203028  0.79431422    -0.06000
N1088       N  0.11651259  0.05975775  0.79127211    -0.61600
C1089       C  0.13088551  0.05875311  0.77300844     0.95100
C1090       C  0.05174244  0.13680271  0.77273143     0.94900
N1091       N  0.08339299  0.12952838  0.86399923    -0.07200
N1092       N  0.06601948  0.13782093  0.87674714    -0.59700
N1093       N  0.11072362  0.08114647  0.84734722    -0.05300
N1094       N  0.10948292  0.05875978  0.84939062    -0.61000
N1095       N  0.12164120  0.09042477  0.86480799    -0.07200
N1096       N  0.12828022  0.07367074  0.87914998    -0.60000
N1097       N  0.07462488  0.11824564  0.84650420    -0.05000
N1098       N  0.05216139  0.11863503  0.84675961    -0.61100
Mn1099     Mn  0.09336703  0.10001043  0.82057009     1.18400
C1100       C  0.04657059  0.13076212  0.86543270     0.97200
C1101       C  0.12030651  0.05396807  0.86914985     0.97900
N1102       N  0.12384583  0.16815849  0.77947239    -0.07300
N1103       N  0.11315786  0.18246894  0.76554433    -0.63600
N1104       N  0.17255948  0.14145812  0.79531275    -0.06100
N1105       N  0.19492293  0.13842514  0.79295280    -0.64200
N1106       N  0.16142420  0.13030955  0.77940530    -0.06800
N1107       N  0.17583440  0.11919916  0.76587035    -0.63800
N1108       N  0.13498029  0.17937319  0.79535019    -0.05700
N1109       N  0.13239724  0.20174492  0.79250773    -0.64500
Mn1110     Mn  0.12415652  0.13095256  0.77841174     1.10700
C1111       C  0.11850127  0.20333881  0.77393300     0.98500
C1112       C  0.19666833  0.12430406  0.77461019     0.98500
N1113       N  0.16260099  0.13026450  0.86467132    -0.06800
N1114       N  0.17949244  0.12194550  0.87794553    -0.62100
N1115       N  0.13615962  0.17866075  0.84813093    -0.06100
N1116       N  0.13816911  0.20086134  0.85056325    -0.58900
N1117       N  0.12500515  0.16933895  0.86544608    -0.07400
N1118       N  0.11913860  0.18598097  0.88020845    -0.61700
N1119       N  0.17189619  0.14185915  0.84762658    -0.06400
N1120       N  0.19430924  0.14185681  0.84879913    -0.58900
Mn1121     Mn  0.12308941  0.12988399  0.86654592     1.20200
Mn1122     Mn  0.15402699  0.16058702  0.82158683     1.10100
Cl1123     Cl  0.12363771  0.13035164  0.82237876    -0.86900
C1124       C  0.19918955  0.12956087  0.86755886     0.95500
C1125       C  0.12771535  0.20558634  0.87044434     0.95300
N1126       N  0.62392079  0.35919932  0.09709356    -0.07000
N1127       N  0.63151119  0.37310825  0.08047733    -0.59100
N1128       N  0.57603014  0.34054065  0.12305067    -0.06700
N1129       N  0.55353141  0.34126405  0.12224178    -0.61300
N1130       N  0.58442868  0.35785115  0.13482878    -0.06300
N1131       N  0.56682217  0.37081643  0.14236353    -0.59100
N1132       N  0.61314489  0.34193668  0.08736132    -0.06000
N1133       N  0.61292007  0.34367216  0.06491018    -0.61600
C1134       C  0.62428703  0.36298516  0.06043865     0.95100
C1135       C  0.54757412  0.36000562  0.13421133     0.94900
N1136       N  0.59026687  0.27220247  0.13514160    -0.07200
N1137       N  0.57651511  0.25744931  0.14505116    -0.59700
N1138       N  0.61620605  0.28905930  0.08696533    -0.05300
N1139       N  0.61773459  0.28531561  0.06467037    -0.61000
N1140       N  0.62797597  0.27351608  0.09839066    -0.07200
N1141       N  0.63796432  0.25889858  0.08426371    -0.60000
N1142       N  0.57841589  0.28779166  0.12384677    -0.05000
N1143       N  0.55620622  0.28395244  0.12561017    -0.61100
Mn1144     Mn  0.59577671  0.31488432  0.10510691     1.18400
C1145       C  0.55532988  0.26508669  0.13913077     0.97200
C1146       C  0.63163793  0.26658550  0.06327301     0.97900
N1147       N  0.62431401  0.35792180  0.17665279    -0.07300
N1148       N  0.61558472  0.37077188  0.19368026    -0.63600
N1149       N  0.67341514  0.34260594  0.15057801    -0.06100
N1150       N  0.69576380  0.34451525  0.15189028    -0.64200
N1151       N  0.66386509  0.35977454  0.13912267    -0.06800
N1152       N  0.68055665  0.37386825  0.13227922    -0.63800
N1153       N  0.63613878  0.34077801  0.18586821    -0.05700
N1154       N  0.63583980  0.34149172  0.20834620    -0.64500
Mn1155     Mn  0.62408679  0.36051897  0.13691878     1.10700
C1156       C  0.62310477  0.36005060  0.21342537     0.98500
C1157       C  0.70043967  0.36390611  0.14064043     0.98500
N1158       N  0.66470693  0.27451683  0.13582682    -0.06800
N1159       N  0.67947246  0.26228930  0.12373612    -0.62100
N1160       N  0.63714626  0.28818425  0.18477289    -0.06100
N1161       N  0.63398985  0.28491368  0.20698157    -0.58900
N1162       N  0.62668855  0.27241038  0.17283942    -0.07400
N1163       N  0.61596322  0.25808149  0.18650309    -0.61700
N1164       N  0.67531994  0.29022768  0.14773722    -0.06400
N1165       N  0.69770727  0.28896439  0.14423791    -0.58900
Mn1166     Mn  0.62750452  0.27248800  0.13559552     1.20200
Mn1167     Mn  0.65570750  0.31542454  0.16748559     1.10100
Cl1168     Cl  0.62574239  0.31642304  0.13625180    -0.86900
C1169       C  0.69996579  0.27154311  0.12903378     0.95500
C1170       C  0.62049864  0.26618292  0.20773274     0.95300
N1171       N  0.08514860  0.27388328  0.63326470    -0.07000
N1172       N  0.07152619  0.25923842  0.64358641    -0.59100
N1173       N  0.10953129  0.29076503  0.58385487    -0.06700
N1174       N  0.11206380  0.28850776  0.56140971    -0.61300
N1175       N  0.12161119  0.27510844  0.59479385    -0.06300
N1176       N  0.13286462  0.26193897  0.58020351    -0.59100
N1177       N  0.07312747  0.28968656  0.62246473    -0.06000
N1178       N  0.05095416  0.28612828  0.62495623    -0.61600
C1179       C  0.05025081  0.26722582  0.63842494     0.95100
C1180       C  0.12689082  0.27053776  0.55944775     0.94900
N1181       N  0.11904428  0.36007692  0.59386338    -0.07200
N1182       N  0.12751739  0.37270850  0.57664137    -0.59700
N1183       N  0.07178060  0.34241116  0.62214512    -0.05300
N1184       N  0.04927842  0.34333252  0.62291704    -0.61000
N1185       N  0.08118636  0.35925551  0.63385792    -0.07200
N1186       N  0.06435082  0.37193131  0.64328271    -0.60000
N1187       N  0.10717047  0.34318541  0.58482492    -0.05000
N1188       N  0.10710449  0.34390288  0.56235704    -0.61100
Mn1189     Mn  0.09008357  0.31658459  0.60310532     1.18400
C1190       C  0.11968043  0.36216691  0.55702200     0.97200
C1191       C  0.04455032  0.36163192  0.63598554     0.97900
N1192       N  0.15963742  0.27535712  0.63071087    -0.07300
N1193       N  0.17378167  0.26258215  0.61844846    -0.63600
N1194       N  0.13447237  0.28972551  0.68062587    -0.06100
N1195       N  0.13189324  0.28713909  0.70296770    -0.64200
N1196       N  0.12319025  0.27400106  0.66939498    -0.06800
N1197       N  0.11246687  0.26035267  0.68376796    -0.63800
N1198       N  0.17095742  0.29098721  0.64203497    -0.05700
N1199       N  0.19318568  0.28913832  0.63794590    -0.64500
Mn1200     Mn  0.12243772  0.27379239  0.63208630     1.10700
C1201       C  0.19464163  0.27143872  0.62299938     0.98500
C1202       C  0.11792936  0.26886921  0.70463288     0.98500
N1203       N  0.12265615  0.35934884  0.67341243    -0.06800
N1204       N  0.11429270  0.37184140  0.69090896    -0.62100
N1205       N  0.17039607  0.34317135  0.64498974    -0.06100
N1206       N  0.19280150  0.34472716  0.64558145    -0.58900
N1207       N  0.16071217  0.36060377  0.63409208    -0.07400
N1208       N  0.17738303  0.37457113  0.62689183    -0.61700
N1209       N  0.13465611  0.34203006  0.68198771    -0.06400
N1210       N  0.13479216  0.34222131  0.70446651    -0.58900
Mn1211     Mn  0.12084894  0.36173891  0.63372238     1.20200
Mn1212     Mn  0.15283361  0.31643681  0.66259760     1.10100
Cl1213     Cl  0.12150074  0.31770788  0.63285582    -0.86900
C1214       C  0.12209777  0.36058291  0.71026398     0.95500
C1215       C  0.19740335  0.36419353  0.63444519     0.95300
N1216       N  0.12513743  0.39868162  0.09346007    -0.07000
N1217       N  0.11702671  0.38591448  0.07627446    -0.59100
N1218       N  0.17304445  0.41366169  0.12102419    -0.06700
N1219       N  0.19548639  0.41147664  0.12086551    -0.61300
N1220       N  0.16315786  0.39686978  0.13245060    -0.06300
N1221       N  0.17959473  0.38293802  0.14075509    -0.59100
N1222       N  0.13702115  0.41566744  0.08454919    -0.06000
N1223       N  0.13731742  0.41492313  0.06209404    -0.61600
C1224       C  0.12496814  0.39650460  0.05676327     0.95100
C1225       C  0.19966163  0.39241245  0.13303633     0.94900
N1226       N  0.16244798  0.48220724  0.13493425    -0.07200
N1227       N  0.17654025  0.49515397  0.14672485    -0.59700
N1228       N  0.13714934  0.46838792  0.08508280    -0.05300
N1229       N  0.13519037  0.47175040  0.06273366    -0.61000
N1230       N  0.12580359  0.48425718  0.09645364    -0.07200
N1231       N  0.11564578  0.49873122  0.08219763    -0.60000
N1232       N  0.17386903  0.46634693  0.12362290    -0.05000
N1233       N  0.19614565  0.46821805  0.12726272    -0.61100
Mn1234     Mn  0.15555034  0.44100782  0.10329994     1.18400
C1235       C  0.19749289  0.48615036  0.14195143     0.97200
C1236       C  0.12154874  0.49066091  0.06120322     0.97900
N1237       N  0.12192161  0.39720455  0.17243979    -0.07300
N1238       N  0.12914035  0.38321418  0.18925338    -0.63600
N1239       N  0.07468911  0.41611058  0.14484554    -0.06100
N1240       N  0.05224996  0.41520052  0.14570693    -0.64200
N1241       N  0.08371947  0.39843316  0.13382646    -0.06800
N1242       N  0.06657645  0.38489406  0.12696864    -0.63800
N1243       N  0.11046840  0.41450731  0.18172196    -0.05700
N1244       N  0.10941684  0.41276444  0.20413336    -0.64500
Mn1245     Mn  0.12349959  0.39600225  0.13296303     1.10700
C1246       C  0.12095479  0.39336659  0.20897038     0.98500
C1247       C  0.04694449  0.39590332  0.13461191     0.98500
N1248       N  0.08785551  0.48426701  0.13291380    -0.06800
N1249       N  0.07396493  0.49834200  0.12173812    -0.62100
N1250       N  0.11285244  0.46681413  0.18189538    -0.06100
N1251       N  0.11498535  0.46893296  0.20430506    -0.58900
N1252       N  0.12467213  0.48251376  0.17115671    -0.07400
N1253       N  0.13537402  0.49566589  0.18596949    -0.61700
N1254       N  0.07612124  0.46857225  0.14378390    -0.06400
N1255       N  0.05390120  0.47162441  0.14044997    -0.58900
Mn1256     Mn  0.12518647  0.48410771  0.13386551     1.20200
Mn1257     Mn  0.09335872  0.44155983  0.16319989     1.10100
Cl1258     Cl  0.12439823  0.44011098  0.13325223    -0.86900
C1259       C  0.05285382  0.49013011  0.12645084     0.95500
C1260       C  0.12925003  0.48687944  0.20655893     0.95300
N1261       N  0.41066241  0.37424475  0.23911946    -0.07000
N1262       N  0.42543719  0.36455214  0.25340342    -0.59100
N1263       N  0.38337321  0.42331231  0.22426974    -0.06700
N1264       N  0.38036252  0.44556524  0.22750579    -0.61300
N1265       N  0.37246894  0.41156044  0.23998155    -0.06300
N1266       N  0.36154850  0.42547187  0.25419496    -0.59100
N1267       N  0.42147654  0.38616706  0.22347673    -0.06000
N1268       N  0.44383852  0.38504133  0.22671356    -0.61600
C1269       C  0.44608152  0.37134059  0.24530556     0.95100
C1270       C  0.36653208  0.44663794  0.24615183     0.94900
N1271       N  0.37424474  0.41580649  0.15373202    -0.07200
N1272       N  0.36759663  0.43300476  0.13984726    -0.59700
N1273       N  0.42192041  0.38836496  0.17091406    -0.05300
N1274       N  0.44439487  0.38891207  0.16969609    -0.61000
N1275       N  0.41290642  0.37705107  0.15355594    -0.07200
N1276       N  0.43003137  0.36945928  0.14009931    -0.60000
N1277       N  0.38503942  0.42468334  0.17147058    -0.05000
N1278       N  0.38602762  0.44709488  0.17019369    -0.61100
Mn1279     Mn  0.40304035  0.40579889  0.19753787     1.18400
C1280       C  0.37524069  0.45250353  0.15061858     0.97200
C1281       C  0.44963340  0.37721481  0.15060348     0.97900
N1282       N  0.33588713  0.37448236  0.23902420    -0.07300
N1283       N  0.32156336  0.38589273  0.25239578    -0.63600
N1284       N  0.36225409  0.32576008  0.22235723    -0.06100
N1285       N  0.36452224  0.30332675  0.22493579    -0.64200
N1286       N  0.37364599  0.33667123  0.23829818    -0.06800
N1287       N  0.38413397  0.32198433  0.25205151    -0.63800
N1288       N  0.32465375  0.36355156  0.22300941    -0.05700
N1289       N  0.30233194  0.36701799  0.22515983    -0.64500
Mn1290     Mn  0.37321813  0.37411629  0.23988087     1.10700
C1291       C  0.30072533  0.38120438  0.24344555     0.98500
C1292       C  0.37848664  0.30126310  0.24339420     0.98500
N1293       N  0.37225414  0.33642123  0.15264797    -0.06800
N1294       N  0.37994540  0.31962844  0.13884754    -0.62100
N1295       N  0.32450307  0.36359179  0.17071720    -0.06100
N1296       N  0.30203967  0.36432692  0.17046415    -0.58900
N1297       N  0.33346722  0.37540605  0.15365038    -0.07400
N1298       N  0.31623159  0.38448104  0.14122515    -0.61700
N1299       N  0.36092281  0.32695897  0.16976218    -0.06400
N1300       N  0.36049477  0.30457214  0.16810483    -0.58900
Mn1301     Mn  0.37320976  0.37614414  0.15154067     1.20200
Mn1302     Mn  0.34291577  0.34472323  0.19642194     1.10100
Cl1303     Cl  0.37315905  0.37515396  0.19579463    -0.86900
C1304       C  0.37218890  0.29978934  0.14893469     0.95500
C1305       C  0.29668028  0.37735864  0.15232508     0.95300
N1306       N  0.66174181  0.62704800  0.40566115    -0.07000
N1307       N  0.67871404  0.63382949  0.39179574    -0.59100
N1308       N  0.63539779  0.57967511  0.42417599    -0.06700
N1309       N  0.63646952  0.55718271  0.42394630    -0.61300
N1310       N  0.62422693  0.58798038  0.40623791    -0.06300
N1311       N  0.61746205  0.57029350  0.39330498    -0.59100
N1312       N  0.67095813  0.61674240  0.42371072    -0.06000
N1313       N  0.69349205  0.61622035  0.42257404    -0.61600
C1314       C  0.69851284  0.62683082  0.40277543     0.95100
C1315       C  0.62537273  0.55109909  0.40483855     0.94900
N1316       N  0.61926228  0.59391550  0.49133827    -0.07200
N1317       N  0.60747781  0.58015213  0.50471799    -0.59700
N1318       N  0.66839945  0.62004157  0.47663147    -0.05300
N1319       N  0.69052137  0.62291289  0.48030893    -0.61000
N1320       N  0.65616719  0.63155483  0.49169129    -0.07200
N1321       N  0.66958927  0.64269114  0.50593544    -0.60000
N1322       N  0.63152739  0.58208507  0.47653681    -0.05000
N1323       N  0.62851112  0.55986343  0.47958040    -0.61100
Mn1324     Mn  0.65186249  0.59948448  0.45031968     1.18400
C1325       C  0.61330910  0.55895067  0.49714168     0.97200
C1326       C  0.69098069  0.63729379  0.49852143     0.97900
N1327       N  0.58206765  0.62819433  0.40373205    -0.07300
N1328       N  0.56542082  0.61867162  0.39111796    -0.63600
N1329       N  0.60772582  0.67733649  0.41946082    -0.06100
N1330       N  0.60726105  0.69975253  0.41763992    -0.64200
N1331       N  0.62013138  0.66756595  0.40313350    -0.06800
N1332       N  0.62868516  0.68419626  0.38982335    -0.63800
N1333       N  0.57225783  0.64057198  0.42005005    -0.05700
N1334       N  0.54983129  0.63986416  0.41903846    -0.64500
Mn1335     Mn  0.62202783  0.62764721  0.40283273     1.10700
C1336       C  0.54529127  0.62629011  0.40117404     0.98500
C1337       C  0.62021750  0.70424898  0.39927786     0.98500
N1338       N  0.61874220  0.66838605  0.48854510    -0.06800
N1339       N  0.63051302  0.68284845  0.50109615    -0.62100
N1340       N  0.57061006  0.64149882  0.47233810    -0.06100
N1341       N  0.54827744  0.63822685  0.47408192    -0.58900
N1342       N  0.58165101  0.63065449  0.48874406    -0.07400
N1343       N  0.56723180  0.61951871  0.50197615    -0.61700
N1344       N  0.60783280  0.67924722  0.47203095    -0.06400
N1345       N  0.61169222  0.70152334  0.47307068    -0.58900
Mn1346     Mn  0.61887893  0.63116398  0.49084254     1.20200
Mn1347     Mn  0.58937692  0.65995403  0.44593900     1.10100
Cl1348     Cl  0.62061705  0.62956157  0.44688552    -0.86900
C1349       C  0.62603518  0.70341883  0.49122992     0.95500
C1350       C  0.54649485  0.62428329  0.49257237     0.95300
N1351       N  0.51531344  0.34418748  0.38526048    -0.07000
N1352       N  0.50150078  0.33075228  0.37360425    -0.59100
N1353       N  0.53159849  0.36896993  0.43486730    -0.06700
N1354       N  0.52919626  0.37243172  0.45716298    -0.61300
N1355       N  0.51638637  0.38111646  0.42337153    -0.06300
N1356       N  0.50337902  0.39324207  0.43740529    -0.59100
N1357       N  0.53063563  0.33196857  0.39651741    -0.06000
N1358       N  0.52759999  0.30988039  0.39293555    -0.61600
C1359       C  0.50945431  0.30937864  0.37848305     0.95100
C1360       C  0.51161228  0.38781665  0.45842639     0.94900
N1361       N  0.60166163  0.37563694  0.42669177    -0.07200
N1362       N  0.61502457  0.38298319  0.44379562    -0.59700
N1363       N  0.58325923  0.32882429  0.39838557    -0.05300
N1364       N  0.58404217  0.30628408  0.39828098    -0.61000
N1365       N  0.60084825  0.33772055  0.38735555    -0.07200
N1366       N  0.61403819  0.32048760  0.37941892    -0.60000
N1367       N  0.58427803  0.36443930  0.43572740    -0.05000
N1368       N  0.58545642  0.36364252  0.45822809    -0.61100
Mn1369     Mn  0.55737389  0.34827122  0.41664959     1.18400
C1370       C  0.60456517  0.37507273  0.46340781     0.97200
C1371       C  0.60315457  0.30088362  0.38654669     0.97900
N1372       N  0.51798556  0.41875717  0.38706214    -0.07300
N1373       N  0.50442126  0.43344912  0.39779154    -0.63600
N1374       N  0.53324005  0.39274250  0.33787291    -0.06100
N1375       N  0.53108428  0.38981017  0.31550621    -0.64200
N1376       N  0.51711079  0.38182355  0.34895316    -0.06800
N1377       N  0.50369948  0.37093967  0.33454000    -0.63800
N1378       N  0.53421709  0.42957364  0.37604295    -0.05700
N1379       N  0.53201972  0.45196354  0.37876095    -0.64500
Mn1380     Mn  0.51590710  0.38149709  0.38616586     1.10700
C1381       C  0.51346674  0.45408426  0.39258716     0.98500
C1382       C  0.51271572  0.37592668  0.31378222     0.98500
N1383       N  0.60226234  0.37912034  0.34731502    -0.06800
N1384       N  0.61500293  0.37023919  0.33029040    -0.62100
N1385       N  0.58673847  0.42749997  0.37511000    -0.06100
N1386       N  0.58882254  0.44986333  0.37482647    -0.58900
N1387       N  0.60355073  0.41732998  0.38657560    -0.07400
N1388       N  0.61757114  0.43361136  0.39451301    -0.61700
N1389       N  0.58571856  0.39176773  0.33812471    -0.06400
N1390       N  0.58678169  0.39198666  0.31564741    -0.58900
Mn1391     Mn  0.60388511  0.37740253  0.38702013     1.20200
Mn1392     Mn  0.55999432  0.41064067  0.35659705     1.10100
Cl1393     Cl  0.55986503  0.37942991  0.38666243    -0.86900
C1394       C  0.60492973  0.37866088  0.31057525     0.95500
C1395       C  0.60796177  0.45391401  0.38674273     0.95300
N1396       N  0.35413660  0.09315927  0.63527047    -0.07000
N1397       N  0.36773946  0.07644644  0.64360497    -0.59100
N1398       N  0.33763562  0.11966401  0.58659620    -0.06700
N1399       N  0.33964382  0.11864585  0.56422544    -0.61300
N1400       N  0.35454973  0.13110371  0.59612671    -0.06300
N1401       N  0.36858771  0.13824820  0.57939025    -0.59100
N1402       N  0.33757995  0.08366024  0.62326630    -0.06000
N1403       N  0.33941619  0.06123659  0.62300206    -0.61600
C1404       C  0.35810406  0.05656661  0.63557945     0.95100
C1405       C  0.35880618  0.13014163  0.55949108     0.94900
N1406       N  0.26852428  0.13150460  0.59667665    -0.07200
N1407       N  0.25480916  0.14220232  0.58212815    -0.59700
N1408       N  0.28530268  0.08323319  0.62342313    -0.05300
N1409       N  0.28349570  0.06089410  0.62635717    -0.61000
N1410       N  0.26901392  0.09425277  0.63450527    -0.07200
N1411       N  0.25574988  0.07976379  0.64545094    -0.60000
N1412       N  0.28490709  0.12050438  0.58567812    -0.05000
N1413       N  0.28261872  0.12318282  0.56328284    -0.61100
Mn1414     Mn  0.31133775  0.10160988  0.60448581     1.18400
C1415       C  0.26386749  0.13697470  0.56137475     0.97200
C1416       C  0.26508172  0.05903904  0.64031342     0.97900
N1417       N  0.35210577  0.17222945  0.63644380    -0.07300
N1418       N  0.36558104  0.18910441  0.62898253    -0.63600
N1419       N  0.33406527  0.14593491  0.68404685    -0.06100
N1420       N  0.33421090  0.14633337  0.70653018    -0.64200
N1421       N  0.35169584  0.13431376  0.67559172    -0.06800
N1422       N  0.36432036  0.12643693  0.69318915    -0.63800
N1423       N  0.33427067  0.18151872  0.64706656    -0.05700
N1424       N  0.33513737  0.20396239  0.64722768    -0.64500
Mn1425     Mn  0.35497626  0.13272181  0.63595869     1.10700
C1426       C  0.35452258  0.20884763  0.63602192     0.98500
C1427       C  0.35294815  0.13429885  0.71242687     0.98500
N1428       N  0.26702304  0.13144596  0.67135260    -0.06800
N1429       N  0.25427612  0.11948515  0.68559760    -0.62100
N1430       N  0.28166076  0.18055100  0.64452176    -0.06100
N1431       N  0.27881854  0.20271283  0.64057025    -0.58900
N1432       N  0.26637472  0.16865028  0.63333146    -0.07400
N1433       N  0.25283075  0.18229410  0.62129873    -0.61700
N1434       N  0.28212489  0.14344153  0.68269870    -0.06400
N1435       N  0.28002854  0.14007071  0.70499227    -0.58900
Mn1436     Mn  0.26689448  0.13142378  0.63399692     1.20200
Mn1437     Mn  0.30798637  0.16319690  0.66474623     1.10100
Cl1438     Cl  0.31087342  0.13229309  0.63476254    -0.86900
C1439       C  0.26270941  0.12491285  0.70652103     0.95500
C1440       C  0.26087768  0.20346437  0.62582452     0.95300
N1441       N  0.26828149  0.62434834  0.09452209    -0.07000
N1442       N  0.25519327  0.63530164  0.07957121    -0.59100
N1443       N  0.28452280  0.57645881  0.12285222    -0.06700
N1444       N  0.28253891  0.55424040  0.12663384    -0.61300
N1445       N  0.26821412  0.58796069  0.13341752    -0.06300
N1446       N  0.25479665  0.57396337  0.14485269    -0.59100
N1447       N  0.28457220  0.61281060  0.08396997    -0.06000
N1448       N  0.28290590  0.61538918  0.06150409    -0.61600
C1449       C  0.26460728  0.62967831  0.05906415     0.95100
C1450       C  0.26400613  0.55299073  0.14056468     0.94900
N1451       N  0.35400654  0.58642100  0.13358678    -0.07200
N1452       N  0.36832514  0.56974051  0.14083460    -0.59700
N1453       N  0.33699574  0.61224081  0.08515895    -0.05300
N1454       N  0.33830296  0.61175344  0.06272014    -0.61000
N1455       N  0.35366207  0.62430514  0.09436647    -0.07200
N1456       N  0.36679469  0.63239462  0.07736000    -0.60000
N1457       N  0.33708553  0.57678173  0.12219930    -0.05000
N1458       N  0.33938180  0.55441088  0.12126514    -0.61100
Mn1459     Mn  0.31076579  0.59435753  0.10340801     1.18400
C1460       C  0.35873317  0.54980805  0.13277547     0.97200
C1461       C  0.35673246  0.62423693  0.05764023     0.97900
N1462       N  0.26638322  0.62608857  0.16914019    -0.07300
N1463       N  0.25309207  0.61471634  0.18332348    -0.63600
N1464       N  0.28141270  0.67444058  0.14172547    -0.06100
N1465       N  0.27765862  0.69659872  0.13846396    -0.64200
N1466       N  0.26630898  0.66232830  0.13049352    -0.06800
N1467       N  0.25202990  0.67579406  0.11914564    -0.63800
N1468       N  0.28148867  0.63803181  0.18055009    -0.05700
N1469       N  0.27876190  0.63523849  0.20288947    -0.64500
Mn1470     Mn  0.26654618  0.62517094  0.13185978     1.10700
C1471       C  0.26107287  0.62046217  0.20431798     0.98500
C1472       C  0.25936605  0.69712273  0.12411571     0.98500
N1473       N  0.35228096  0.66608206  0.13452130    -0.06800
N1474       N  0.36660327  0.68279757  0.12829420    -0.62100
N1475       N  0.33394687  0.64013376  0.18204052    -0.06100
N1476       N  0.33459450  0.64129161  0.20450206    -0.58900
N1477       N  0.35164796  0.62853722  0.17362705    -0.07400
N1478       N  0.36484631  0.62155580  0.19116705    -0.61700
N1479       N  0.33433287  0.67559234  0.14478741    -0.06400
N1480       N  0.33597012  0.69800654  0.14585444    -0.58900
Mn1481     Mn  0.35470465  0.62631744  0.13407838     1.20200
Mn1482     Mn  0.30773969  0.65733600  0.16241868     1.10100
Cl1483     Cl  0.31055427  0.62584037  0.13297638    -0.86900
C1484       C  0.35599004  0.70268799  0.13568688     0.95500
C1485       C  0.35372712  0.62979669  0.21036783     0.95300
N1486       N  0.48074081  0.12359032  0.09682601    -0.07000
N1487       N  0.49420437  0.11194554  0.08278549    -0.59100
N1488       N  0.46612471  0.17353610  0.12178045    -0.06700
N1489       N  0.46950261  0.19581779  0.12353092    -0.61300
N1490       N  0.48185392  0.16198647  0.13315301    -0.06300
N1491       N  0.49625060  0.17600279  0.14315928    -0.59100
N1492       N  0.46501542  0.13501764  0.08533460    -0.06000
N1493       N  0.46745506  0.13157924  0.06305852    -0.61600
C1494       C  0.48562359  0.11690913  0.06177206     0.95100
C1495       C  0.48827415  0.19703291  0.13711743     0.94900
N1496       N  0.39596345  0.16637860  0.13296683    -0.07200
N1497       N  0.38241801  0.18372104  0.13995970    -0.59700
N1498       N  0.41261113  0.13799214  0.08593334    -0.05300
N1499       N  0.41118839  0.13852546  0.06353764    -0.61000
N1500       N  0.39508730  0.12737168  0.09534841    -0.07200
N1501       N  0.38115534  0.12043617  0.07846795    -0.60000
N1502       N  0.41331390  0.17503297  0.12135525    -0.05000
N1503       N  0.41204143  0.19747940  0.12015883    -0.61100
Mn1504     Mn  0.43926424  0.15561866  0.10343953     1.18400
C1505       C  0.39288908  0.20307235  0.13164375     0.97200
C1506       C  0.39173377  0.12772123  0.05863142     0.97900
N1507       N  0.48167399  0.12606543  0.17129406    -0.07300
N1508       N  0.49569984  0.13722261  0.18489147    -0.63600
N1509       N  0.46460712  0.07700416  0.14643791    -0.06100
N1510       N  0.46537336  0.05476486  0.14220901    -0.64200
N1511       N  0.48033381  0.08769808  0.13459595    -0.06800
N1512       N  0.49209907  0.07312587  0.12184136    -0.63800
N1513       N  0.46592061  0.11554542  0.18327556    -0.05700
N1514       N  0.46892929  0.11914300  0.20545548    -0.64500
Mn1515     Mn  0.48190626  0.12479607  0.13404025     1.10700
C1516       C  0.48748321  0.13290936  0.20615037     0.98500
C1517       C  0.48251015  0.05268009  0.12666524     0.98500
N1518       N  0.39523772  0.08703994  0.13689955    -0.06800
N1519       N  0.38218747  0.07005107  0.12881679    -0.62100
N1520       N  0.41328463  0.11520752  0.18422707    -0.06100
N1521       N  0.41235248  0.11512108  0.20669080    -0.58900
N1522       N  0.39578287  0.12646661  0.17501683    -0.07400
N1523       N  0.38240964  0.13433995  0.19211283    -0.61700
N1524       N  0.41234768  0.07778547  0.14867594    -0.06400
N1525       N  0.41138787  0.05530989  0.14894521    -0.58900
Mn1526     Mn  0.39363964  0.12682031  0.13510351     1.20200
Mn1527     Mn  0.43907229  0.09618846  0.16598800     1.10100
Cl1528     Cl  0.43785870  0.12595361  0.13470878    -0.86900
C1529       C  0.39270090  0.05023036  0.13668028     0.95500
C1530       C  0.39323421  0.12690885  0.21187737     0.95300
N1531       N  0.33521948  0.14600397  0.38589772    -0.07000
N1532       N  0.31873203  0.13235318  0.39412113    -0.59100
N1533       N  0.36027884  0.16260394  0.33694695    -0.06700
N1534       N  0.35951267  0.16131955  0.31451005    -0.61300
N1535       N  0.37299893  0.14606715  0.34604504    -0.06300
N1536       N  0.38135651  0.13309723  0.32889095    -0.59100
N1537       N  0.32523242  0.16292827  0.37444680    -0.06000
N1538       N  0.30284110  0.16130272  0.37442385    -0.61600
C1539       C  0.29853196  0.14237843  0.38657045     0.95100
C1540       C  0.37249791  0.14303432  0.30923764     0.94900
N1541       N  0.37152841  0.23099362  0.34617737    -0.07200
N1542       N  0.38258616  0.24374328  0.33126949    -0.59700
N1543       N  0.32387557  0.21540960  0.37436809    -0.05300
N1544       N  0.30154845  0.21820419  0.37719948    -0.61000
N1545       N  0.33510714  0.23163358  0.38489770    -0.07200
N1546       N  0.32082780  0.24578552  0.39539220    -0.60000
N1547       N  0.36025235  0.21480648  0.33562417    -0.05000
N1548       N  0.36311344  0.21624679  0.31317096    -0.61100
Mn1549     Mn  0.34216854  0.18892748  0.35521801     1.18400
C1550       C  0.37728280  0.23430821  0.31077347     0.97200
C1551       C  0.29997324  0.23708097  0.39063115     0.97900
N1552       N  0.41496051  0.14773816  0.38628031    -0.07300
N1553       N  0.43229769  0.13395701  0.37958000    -0.63600
N1554       N  0.38848233  0.16566031  0.43414970    -0.06100
N1555       N  0.38950914  0.16470509  0.45665839    -0.64200
N1556       N  0.37732034  0.14806947  0.42548900    -0.06800
N1557       N  0.37033367  0.13478808  0.44283337    -0.63800
N1558       N  0.42378713  0.16569051  0.39671113    -0.05700
N1559       N  0.44625233  0.16465779  0.39732960    -0.64500
Mn1560     Mn  0.37520036  0.14510751  0.38592554     1.10700
C1561       C  0.45179465  0.14501054  0.38678101     0.98500
C1562       C  0.37825755  0.14556037  0.46222155     0.98500
N1563       N  0.37314974  0.23377925  0.42081553    -0.06800
N1564       N  0.36267032  0.24814792  0.43488303    -0.62100
N1565       N  0.42172230  0.21837368  0.39354630    -0.06100
N1566       N  0.44381821  0.22204750  0.39028231    -0.58900
N1567       N  0.40933824  0.23342495  0.38212253    -0.07400
N1568       N  0.42253530  0.24760822  0.37068538    -0.61700
N1569       N  0.38527022  0.21859527  0.43236357    -0.06400
N1570       N  0.38350417  0.22233337  0.45465285    -0.58900
Mn1571     Mn  0.37220870  0.23315761  0.38346657     1.20200
Mn1572     Mn  0.40502949  0.19209853  0.41441109     1.10100
Cl1573     Cl  0.37369629  0.18920454  0.38483835    -0.86900
C1574       C  0.36912879  0.24071512  0.45595581     0.95500
C1575       C  0.44402000  0.24022956  0.37573835     0.95300
N1576       N  0.59182236  0.77249347  0.62777304    -0.07000
N1577       N  0.57782886  0.75764372  0.63726707    -0.59100
N1578       N  0.61793121  0.79181076  0.58048179    -0.06700
N1579       N  0.62023835  0.79012353  0.55798107    -0.61300
N1580       N  0.62987030  0.77568691  0.59088369    -0.06300
N1581       N  0.64074809  0.76271398  0.57583952    -0.59100
N1582       N  0.58013352  0.78896253  0.61762098    -0.06000
N1583       N  0.55783716  0.78562813  0.61964950    -0.61600
C1584       C  0.55669588  0.76608510  0.63213902     0.95100
C1585       C  0.63479433  0.77201715  0.55537027     0.94900
N1586       N  0.62701452  0.86046057  0.59359018    -0.07200
N1587       N  0.63488030  0.87420755  0.57692226    -0.59700
N1588       N  0.57924072  0.84172332  0.62008473    -0.05300
N1589       N  0.55676642  0.84262702  0.62014431    -0.61000
N1590       N  0.58822051  0.85850969  0.63217818    -0.07200
N1591       N  0.57101617  0.87130192  0.64083083    -0.60000
N1592       N  0.61547812  0.84377048  0.58385744    -0.05000
N1593       N  0.61508505  0.84557387  0.56151826    -0.61100
Mn1594     Mn  0.59794008  0.81669519  0.60040505     1.18400
C1595       C  0.62693833  0.86443482  0.55693305     0.97200
C1596       C  0.55140148  0.86090810  0.63299933     0.97900
N1597       N  0.66668124  0.77383082  0.62859985    -0.07300
N1598       N  0.68169035  0.76124262  0.61709982    -0.63600
N1599       N  0.63876296  0.78609670  0.67794116    -0.06100
N1600       N  0.63458543  0.78238496  0.69989950    -0.64200
N1601       N  0.62838536  0.77086884  0.66519607    -0.06800
N1602       N  0.61673189  0.75654711  0.67803606    -0.63800
N1603       N  0.67722868  0.78885094  0.64143589    -0.05700
N1604       N  0.69967160  0.78685490  0.63909585    -0.64500
Mn1605     Mn  0.62931527  0.77237927  0.62804084     1.10700
C1606       C  0.70220774  0.76972073  0.62366802     0.98500
C1607       C  0.62062532  0.76398289  0.69961596     0.98500
N1608       N  0.62849996  0.85664259  0.67310780    -0.06800
N1609       N  0.62029679  0.86921621  0.69060602    -0.62100
N1610       N  0.67683379  0.84067984  0.64589359    -0.06100
N1611       N  0.69933211  0.84100231  0.64569603    -0.58900
N1612       N  0.66775966  0.85814785  0.63452904    -0.07400
N1613       N  0.68492399  0.87082809  0.62618293    -0.61700
N1614       N  0.63957447  0.83872848  0.68169724    -0.06400
N1615       N  0.63925444  0.83863877  0.70421748    -0.58900
Mn1616     Mn  0.62793175  0.86031554  0.63338968     1.20200
Mn1617     Mn  0.65825883  0.81360773  0.66210627     1.10100
Cl1618     Cl  0.62833225  0.81603447  0.63102612    -0.86900
C1619       C  0.62725935  0.85749459  0.71000547     0.95500
C1620       C  0.70460740  0.85967564  0.63351200     0.95300
N1621       N  0.22792891  0.34229951  0.38130710    -0.07000
N1622       N  0.24228059  0.32805373  0.39169144    -0.59100
N1623       N  0.21047957  0.36861141  0.33322314    -0.06700
N1624       N  0.21339919  0.37059537  0.31085231    -0.61300
N1625       N  0.22594630  0.38032928  0.34436614    -0.06300
N1626       N  0.23972937  0.39076803  0.32991955    -0.59100
N1627       N  0.21222273  0.33090855  0.37016003    -0.06000
N1628       N  0.21550741  0.30862142  0.37239853    -0.61600
C1629       C  0.23421528  0.30713235  0.38600905     0.95100
C1630       C  0.23158732  0.38468338  0.30906740     0.94900
N1631       N  0.14055775  0.37693559  0.34302591    -0.07200
N1632       N  0.12682140  0.38414201  0.32591849    -0.59700
N1633       N  0.15978610  0.32933283  0.36967280    -0.05300
N1634       N  0.15939411  0.30685693  0.36901405    -0.61000
N1635       N  0.14227922  0.33800314  0.38128676    -0.07200
N1636       N  0.12953949  0.32059467  0.38892167    -0.60000
N1637       N  0.15827016  0.36602838  0.33385106    -0.05000
N1638       N  0.15718257  0.36549171  0.31144885    -0.61100
Mn1639     Mn  0.18516176  0.34858154  0.35162171     1.18400
C1640       C  0.13775384  0.37667241  0.30624188     0.97200
C1641       C  0.14065401  0.30120456  0.38089783     0.97900
N1642       N  0.22511461  0.41697429  0.38230833    -0.07300
N1643       N  0.23873788  0.43188336  0.37240361    -0.63600
N1644       N  0.21125633  0.38926824  0.43090763    -0.06100
N1645       N  0.21493006  0.38643180  0.45311319    -0.64200
N1646       N  0.22721959  0.37873666  0.41890250    -0.06800
N1647       N  0.24202882  0.36827726  0.43250427    -0.63800
N1648       N  0.20923971  0.42759169  0.39435636    -0.05700
N1649       N  0.21172358  0.45002982  0.39315679    -0.64500
Mn1650     Mn  0.22727401  0.37966597  0.38166186     1.10700
C1651       C  0.23007950  0.45242972  0.37920071     0.98500
C1652       C  0.23409395  0.37304567  0.45378909     0.98500
N1653       N  0.14133834  0.37821196  0.42269297    -0.06800
N1654       N  0.12825742  0.37015392  0.43976441    -0.62100
N1655       N  0.15677694  0.42666447  0.39620865    -0.06100
N1656       N  0.15520178  0.44909819  0.39676371    -0.58900
N1657       N  0.13980069  0.41747359  0.38451811    -0.07400
N1658       N  0.12619164  0.43450997  0.37673736    -0.61700
N1659       N  0.15847221  0.38961427  0.43188554    -0.06400
N1660       N  0.15750712  0.38975298  0.45435759    -0.58900
Mn1661     Mn  0.13907656  0.37767242  0.38287735     1.20200
Mn1662     Mn  0.18388875  0.40843231  0.41358255     1.10100
Cl1663     Cl  0.18326338  0.37861765  0.38245289    -0.86900
C1664       C  0.13881178  0.37769766  0.45948227     0.95500
C1665       C  0.13626284  0.45422545  0.38474807     0.95300
N1666       N  0.58417263  0.62746637  0.86254636    -0.07000
N1667       N  0.56713888  0.63581131  0.87563939    -0.59100
N1668       N  0.61160873  0.57951136  0.84638017    -0.06700
N1669       N  0.61153294  0.55712636  0.84735497    -0.61300
N1670       N  0.62309662  0.58861830  0.86350114    -0.06300
N1671       N  0.63117289  0.57146397  0.87673482    -0.59100
N1672       N  0.57503922  0.61582057  0.84547117    -0.06000
N1673       N  0.55256579  0.61575990  0.84653506    -0.61600
C1674       C  0.54747800  0.62814472  0.86522080     0.95100
C1675       C  0.62367905  0.55181834  0.86603788     0.94900
N1676       N  0.62578865  0.58930782  0.77877858    -0.07200
N1677       N  0.63850288  0.57495301  0.76668343    -0.59700
N1678       N  0.57572189  0.61535967  0.79270772    -0.05300
N1679       N  0.55339345  0.61776873  0.78956175    -0.61000
N1680       N  0.58712545  0.62611075  0.77667181    -0.07200
N1681       N  0.57293983  0.63638746  0.76228754    -0.60000
N1682       N  0.61430043  0.57832453  0.79459648    -0.05000
N1683       N  0.61880228  0.55609459  0.79360711    -0.61100
Mn1684     Mn  0.59383902  0.59712832  0.81978555     1.18400
C1685       C  0.63414407  0.55430186  0.77622369     0.97200
C1686       C  0.55198930  0.63117489  0.77063752     0.97900
N1687       N  0.66337621  0.62936891  0.86231638    -0.07300
N1688       N  0.68057846  0.62040429  0.87480071    -0.63600
N1689       N  0.63525451  0.67744806  0.84488800    -0.06100
N1690       N  0.63609263  0.69987905  0.84662024    -0.64200
N1691       N  0.62454352  0.66810259  0.86249065    -0.06800
N1692       N  0.61765952  0.68493155  0.87662498    -0.63800
N1693       N  0.67228447  0.64122675  0.84524652    -0.05700
N1694       N  0.69477081  0.64071551  0.84565813    -0.64500
Mn1695     Mn  0.62383063  0.62837984  0.86460194     1.10700
C1696       C  0.70012571  0.62783285  0.86395534     0.98500
C1697       C  0.62522482  0.70470761  0.86632241     0.98500
N1698       N  0.62295526  0.66356550  0.77617921    -0.06800
N1699       N  0.61191680  0.67691184  0.76157732    -0.62100
N1700       N  0.67238685  0.63898499  0.79308791    -0.06100
N1701       N  0.69480726  0.63612159  0.79115986    -0.58900
N1702       N  0.66163248  0.62681789  0.77766903    -0.07400
N1703       N  0.67639876  0.61524173  0.76488995    -0.61700
N1704       N  0.63353404  0.67579565  0.79170806    -0.06400
N1705       N  0.63017381  0.69791889  0.78787465    -0.58900
Mn1706     Mn  0.62438809  0.62640155  0.77654712     1.20200
Mn1707     Mn  0.65348626  0.65877969  0.81870686     1.10100
Cl1708     Cl  0.62378987  0.62783818  0.82049351    -0.86900
C1709       C  0.61642802  0.69830129  0.76911221     0.95500
C1710       C  0.69704918  0.62111262  0.77360040     0.95300
N1711       N  0.33687144  0.38015220  0.52896705    -0.07000
N1712       N  0.32339872  0.36928211  0.51459007    -0.59100
N1713       N  0.36175573  0.42943943  0.54497839    -0.06700
N1714       N  0.36495486  0.45167674  0.54221457    -0.61300
N1715       N  0.37367716  0.41772455  0.52985257    -0.06300
N1716       N  0.38543527  0.43150364  0.51654242    -0.59100
N1717       N  0.32469829  0.39169690  0.54405125    -0.06000
N1718       N  0.30253710  0.38910351  0.54025056    -0.61600
C1719       C  0.30202066  0.37489675  0.52189736     0.95100
C1720       C  0.38001546  0.45261460  0.52451014     0.94900
N1721       N  0.36940785  0.42141950  0.61512631    -0.07200
N1722       N  0.37691186  0.43862180  0.62830391    -0.59700
N1723       N  0.32241696  0.39374849  0.59665389    -0.05300
N1724       N  0.29991138  0.39422252  0.59730000    -0.61000
N1725       N  0.33128835  0.38260137  0.61433682    -0.07200
N1726       N  0.31401133  0.37517528  0.62749920    -0.60000
N1727       N  0.35829358  0.43038637  0.59746923    -0.05000
N1728       N  0.35785358  0.45286921  0.59816354    -0.61100
Mn1729     Mn  0.34154748  0.41153627  0.57078011     1.18400
C1730       C  0.36937693  0.45823325  0.61724989     0.97200
C1731       C  0.29444385  0.38275884  0.61641965     0.97900
N1732       N  0.41130820  0.38156196  0.53149291    -0.07300
N1733       N  0.42521162  0.39322560  0.51823212    -0.63600
N1734       N  0.38631341  0.33219818  0.54623910    -0.06100
N1735       N  0.38440024  0.30983287  0.54301278    -0.64200
N1736       N  0.37493172  0.34355816  0.53040509    -0.06800
N1737       N  0.36483768  0.32942260  0.51614789    -0.63800
N1738       N  0.42284063  0.37065544  0.54753586    -0.05700
N1739       N  0.44509089  0.37441863  0.54539754    -0.64500
Mn1740     Mn  0.37415518  0.38066914  0.52954743     1.10700
C1741       C  0.44621468  0.38878331  0.52710527     0.98500
C1742       C  0.37073333  0.30844131  0.52423211     0.98500
N1743       N  0.37297707  0.34202498  0.61558824    -0.06800
N1744       N  0.36459844  0.32512139  0.62858237    -0.62100
N1745       N  0.42110736  0.36907906  0.60060760    -0.06100
N1746       N  0.44345228  0.36836944  0.60352154    -0.58900
N1747       N  0.41065503  0.38072620  0.61710143    -0.07400
N1748       N  0.42656999  0.38857405  0.63155687    -0.61700
N1749       N  0.38550776  0.33271709  0.59905893    -0.06400
N1750       N  0.38606823  0.31028153  0.60037527    -0.58900
Mn1751     Mn  0.37099602  0.38168666  0.61734583     1.20200
Mn1752     Mn  0.40428833  0.35090236  0.57336146     1.10100
Cl1753     Cl  0.37272352  0.38112538  0.57337702    -0.86900
C1754       C  0.37313842  0.30538248  0.61866318     0.95500
C1755       C  0.44694846  0.38040865  0.62273284     0.95300
N1756       N  0.39160495  0.67222985  0.63250929    -0.07000
N1757       N  0.37882467  0.68970986  0.64058591    -0.59100
N1758       N  0.40717674  0.64491208  0.58437058    -0.06700
N1759       N  0.40574711  0.64526721  0.56189482    -0.61300
N1760       N  0.39011263  0.63359741  0.59383281    -0.06300
N1761       N  0.37668761  0.62568608  0.57703392    -0.59100
N1762       N  0.40903554  0.68084516  0.62099276    -0.06000
N1763       N  0.40851679  0.70333542  0.62079910    -0.61600
C1764       C  0.38977492  0.70906386  0.63286246     0.95100
C1765       C  0.38683861  0.63337625  0.55717373     0.94900
N1766       N  0.47495385  0.62831872  0.59486183    -0.07200
N1767       N  0.48789873  0.61662896  0.58035901    -0.59700
N1768       N  0.46211490  0.67830396  0.62103498    -0.05300
N1769       N  0.46690341  0.70037436  0.62243843    -0.61000
N1770       N  0.47755735  0.66598007  0.63203245    -0.07200
N1771       N  0.49307883  0.67925965  0.64141315    -0.60000
N1772       N  0.45955543  0.64062967  0.58378270    -0.05000
N1773       N  0.46170708  0.63775616  0.56140836    -0.61100
Mn1774     Mn  0.43438898  0.66146615  0.60239807     1.18400
C1775       C  0.47932358  0.62252117  0.55954843     0.97200
C1776       C  0.48615641  0.70068845  0.63548527     0.97900
N1777       N  0.38918267  0.59253437  0.63460781    -0.07300
N1778       N  0.37582084  0.57576840  0.62653654    -0.63600
N1779       N  0.40714656  0.61932131  0.68254411    -0.06100
N1780       N  0.40564600  0.61848328  0.70499955    -0.64200
N1781       N  0.39018351  0.63134184  0.67330470    -0.06800
N1782       N  0.37672653  0.63924567  0.69027756    -0.63800
N1783       N  0.40604442  0.58291309  0.64641781    -0.05700
N1784       N  0.40466739  0.56049797  0.64685383    -0.64500
Mn1785     Mn  0.38849350  0.63250554  0.63351488     1.10700
C1786       C  0.38594445  0.55579241  0.63457695     0.98500
C1787       C  0.38679984  0.63083688  0.71000826     0.98500
N1788       N  0.47598763  0.62914305  0.66960166    -0.06800
N1789       N  0.49066877  0.63889703  0.68358099    -0.62100
N1790       N  0.45810059  0.58108937  0.64445157    -0.06100
N1791       N  0.46008774  0.55861879  0.64249143    -0.58900
N1792       N  0.47402399  0.59141671  0.63253000    -0.07400
N1793       N  0.48720743  0.57625563  0.62197508    -0.61700
N1794       N  0.45989526  0.61875776  0.68127895    -0.06400
N1795       N  0.46333318  0.62091202  0.70353724    -0.58900
Mn1796     Mn  0.47643675  0.62864634  0.63224674     1.20200
Mn1797     Mn  0.43276360  0.60045872  0.66389220     1.10100
Cl1798     Cl  0.43273012  0.63084530  0.63304117    -0.86900
C1799       C  0.48248210  0.63371539  0.70466440     0.95500
C1800       C  0.47815228  0.55588778  0.62816672     0.95300
N1801       N  0.65623489  0.48571306  0.63563836    -0.07000
N1802       N  0.67068716  0.49963407  0.64570647    -0.59100
N1803       N  0.62822815  0.46994332  0.58810654    -0.06700
N1804       N  0.62488965  0.47293158  0.56588390    -0.61300
N1805       N  0.61716940  0.48571505  0.59990441    -0.06300
N1806       N  0.60590031  0.49975821  0.58607058    -0.59100
N1807       N  0.66732994  0.46995369  0.62389390    -0.06000
N1808       N  0.68970358  0.47284773  0.62544196    -0.61600
C1809       C  0.69148381  0.49133596  0.63929517     0.95100
C1810       C  0.61069846  0.49147251  0.56489337     0.94900
N1811       N  0.61993773  0.39988375  0.59726372    -0.07200
N1812       N  0.61251754  0.38625024  0.58031507    -0.59700
N1813       N  0.66837074  0.41724821  0.62296821    -0.05300
N1814       N  0.69090757  0.41627430  0.62255220    -0.61000
N1815       N  0.65959964  0.40027727  0.63504891    -0.07200
N1816       N  0.67690573  0.38741960  0.64334493    -0.60000
N1817       N  0.63055558  0.41739924  0.58783957    -0.05000
N1818       N  0.63059030  0.41626439  0.56540222    -0.61100
Mn1819     Mn  0.64883058  0.44360520  0.60547091     1.18400
C1820       C  0.61943679  0.39701758  0.56041026     0.97200
C1821       C  0.69638997  0.39777471  0.63518608     0.97900
N1822       N  0.58180494  0.48560864  0.63874119    -0.07300
N1823       N  0.56687582  0.49859938  0.62762525    -0.63600
N1824       N  0.61060212  0.46959193  0.68633103    -0.06100
N1825       N  0.61541727  0.47118004  0.70839435    -0.64200
N1826       N  0.62124854  0.48544951  0.67460724    -0.06800
N1827       N  0.63377292  0.49816704  0.68835554    -0.63800
N1828       N  0.57124101  0.46987085  0.65067510    -0.05700
N1829       N  0.54879180  0.47182510  0.64824741    -0.64500
Mn1830     Mn  0.61904935  0.48643807  0.63724412     1.10700
C1831       C  0.54639182  0.48971856  0.63365405     0.98500
C1832       C  0.63004356  0.48897848  0.70937076     0.98500
N1833       N  0.62004554  0.39978872  0.67702018    -0.06800
N1834       N  0.62785957  0.38611938  0.69391865    -0.62100
N1835       N  0.57152148  0.41759317  0.65161544    -0.06100
N1836       N  0.54904941  0.41721711  0.65205111    -0.58900
N1837       N  0.58028382  0.40040593  0.63960666    -0.07400
N1838       N  0.56293333  0.38782078  0.63158949    -0.61700
N1839       N  0.60925292  0.41740602  0.68646888    -0.06400
N1840       N  0.60945968  0.41636773  0.70889364    -0.58900
Mn1841     Mn  0.61996805  0.39818354  0.63719821     1.20200
Mn1842     Mn  0.59047974  0.44363713  0.66899937     1.10100
Cl1843     Cl  0.61959212  0.44239014  0.63717731    -0.86900
C1844       C  0.62100177  0.39705114  0.71378808     0.95500
C1845       C  0.54348918  0.39888080  0.63956507     0.95300
N1846       N  0.33190097  0.60946375  0.38576320    -0.07000
N1847       N  0.31474433  0.62262469  0.37762220    -0.59100
N1848       N  0.36033741  0.59215966  0.43299288    -0.06700
N1849       N  0.36029181  0.59344191  0.45542362    -0.61300
N1850       N  0.37138572  0.60934603  0.42348842    -0.06300
N1851       N  0.37911435  0.62293652  0.44029763    -0.59100
N1852       N  0.32291884  0.59254960  0.39773425    -0.06000
N1853       N  0.30045131  0.59379585  0.39822344    -0.61600
C1854       C  0.29517521  0.61246662  0.38584801     0.95100
C1855       C  0.37193264  0.61246078  0.46022819     0.94900
N1856       N  0.37283278  0.52390371  0.42144019    -0.07200
N1857       N  0.38435378  0.51027400  0.43546751    -0.59700
N1858       N  0.32281216  0.53984311  0.39724444    -0.05300
N1859       N  0.30038745  0.53710079  0.39577794    -0.61000
N1860       N  0.33376506  0.52391154  0.38559591    -0.07200
N1861       N  0.31917030  0.51004282  0.37563843    -0.60000
N1862       N  0.36186498  0.53989050  0.43299617    -0.05000
N1863       N  0.36548925  0.53752787  0.45521996    -0.61100
Mn1864     Mn  0.34177564  0.56613984  0.41540730     1.18400
C1865       C  0.37971516  0.51907899  0.45648011     0.97200
C1866       C  0.29844124  0.51857462  0.38197693     0.97900
N1867       N  0.41119011  0.60784968  0.38159032    -0.07300
N1868       N  0.42849852  0.62005229  0.39018725    -0.63600
N1869       N  0.38213475  0.59175782  0.33425449    -0.06100
N1870       N  0.38241532  0.59360394  0.31184320    -0.64200
N1871       N  0.37148312  0.60929529  0.34405576    -0.06800
N1872       N  0.36401942  0.62354802  0.32753976    -0.63800
N1873       N  0.41996971  0.59095413  0.36916254    -0.05700
N1874       N  0.44251713  0.59136187  0.36879320    -0.64500
Mn1875     Mn  0.37153659  0.61082037  0.38373989     1.10700
C1876       C  0.44798778  0.60940516  0.38183143     0.98500
C1877       C  0.37120630  0.61329221  0.30748923     0.98500
N1878       N  0.36918574  0.52332378  0.34682917    -0.06800
N1879       N  0.35823378  0.50900843  0.33337921    -0.62100
N1880       N  0.41914930  0.53859412  0.37064032    -0.06100
N1881       N  0.44153797  0.53650916  0.37349038    -0.58900
N1882       N  0.40829094  0.52317277  0.38274773    -0.07400
N1883       N  0.42295674  0.51024387  0.39429385    -0.61700
N1884       N  0.37996699  0.53877044  0.33464847    -0.06400
N1885       N  0.37679630  0.53515994  0.31247506    -0.58900
Mn1886     Mn  0.37104389  0.52282089  0.38413493     1.20200
Mn1887     Mn  0.40045693  0.56499416  0.35180025     1.10100
Cl1888     Cl  0.37117805  0.56675673  0.38369130    -0.86900
C1889       C  0.36293787  0.51663651  0.31198642     0.95500
C1890       C  0.44359778  0.51887960  0.38847271     0.95300
N1891       N  0.58270225  0.12882242  0.90304733    -0.07000
N1892       N  0.56532163  0.12101307  0.89021755    -0.59100
N1893       N  0.60887900  0.17702701  0.92036143    -0.06700
N1894       N  0.60774643  0.19950302  0.91951345    -0.61300
N1895       N  0.62005675  0.16831218  0.90261817    -0.06300
N1896       N  0.62693926  0.18567290  0.88928941    -0.59100
N1897       N  0.57386390  0.13977151  0.92083550    -0.06000
N1898       N  0.55140436  0.13965609  0.92065765    -0.61600
C1899       C  0.54579139  0.12800035  0.90179582     0.95100
C1900       C  0.61887245  0.20509002  0.90023510     0.94900
N1901       N  0.62358815  0.16396092  0.98833607    -0.07200
N1902       N  0.63426996  0.17779308  0.00244281    -0.59700
N1903       N  0.57554486  0.13704500  0.97306164    -0.05300
N1904       N  0.55340292  0.13359277  0.97605836    -0.61000
N1905       N  0.58762676  0.12547727  0.98821439    -0.07200
N1906       N  0.57406697  0.11373894  0.00188458    -0.60000
N1907       N  0.61164754  0.17563745  0.97317605    -0.05000
N1908       N  0.61366090  0.19789912  0.97674106    -0.61100
Mn1909     Mn  0.59234002  0.15763287  0.94685420     1.18400
C1910       C  0.62803475  0.19890025  0.99498189     0.97200
C1911       C  0.55274820  0.11886477  0.99400661     0.97900
N1912       N  0.66240228  0.12853495  0.90052010    -0.07300
N1913       N  0.67849091  0.13686756  0.88644472    -0.63600
N1914       N  0.63790202  0.07978681  0.91806440    -0.06100
N1915       N  0.63879223  0.05734683  0.91689110    -0.64200
N1916       N  0.62524124  0.08882830  0.90148404    -0.06800
N1917       N  0.61716792  0.07167433  0.88859089    -0.63800
N1918       N  0.67280711  0.11701053  0.91714460    -0.05700
N1919       N  0.69520624  0.11683726  0.91470683    -0.64500
Mn1920     Mn  0.62251604  0.12862110  0.90004880     1.10700
C1921       C  0.69891117  0.12909677  0.89565816     0.98500
C1922       C  0.62602092  0.05204858  0.89862900     0.98500
N1923       N  0.62652960  0.08998452  0.98661319    -0.06800
N1924       N  0.61601118  0.07546036  0.00015986    -0.62100
N1925       N  0.67391641  0.11824957  0.97020477    -0.06100
N1926       N  0.69606758  0.12237298  0.97254615    -0.58900
N1927       N  0.66209151  0.12866991  0.98634831    -0.07400
N1928       N  0.67570624  0.14033366  0.99989075    -0.61700
N1929       N  0.63821110  0.07909971  0.97069579    -0.06400
N1930       N  0.63610982  0.05667270  0.97312593    -0.58900
Mn1931     Mn  0.62494899  0.12693349  0.98803740     1.20200
Mn1932     Mn  0.65605759  0.09832286  0.94402535     1.10100
Cl1933     Cl  0.62399239  0.12788040  0.94410670    -0.86900
C1934       C  0.62201149  0.05478378  0.99150493     0.95500
C1935       C  0.69682280  0.13643994  0.99105046     0.95300
N1936       N  0.16363580  0.98628813  0.63333232    -0.07000
N1937       N  0.17741562  0.00014570  0.64443748    -0.59100
N1938       N  0.13794754  0.97033906  0.58458981    -0.06700
N1939       N  0.13426446  0.97259274  0.56232865    -0.61300
N1940       N  0.12598246  0.98564122  0.59608088    -0.06300
N1941       N  0.11371938  0.99858841  0.58210455    -0.59100
N1942       N  0.17550105  0.97065221  0.62215248    -0.06000
N1943       N  0.19771614  0.97356992  0.62514154    -0.61600
C1944       C  0.19859558  0.99189500  0.63931331     0.95100
C1945       C  0.11892870  0.99018767  0.56112115     0.94900
N1946       N  0.12960663  0.90075386  0.59315738    -0.07200
N1947       N  0.12206360  0.88773302  0.57582707    -0.59700
N1948       N  0.17732486  0.91764860  0.62018315    -0.05300
N1949       N  0.19983417  0.91589107  0.61962075    -0.61000
N1950       N  0.16803056  0.90062094  0.63176306    -0.07200
N1951       N  0.18484149  0.88704514  0.63980781    -0.60000
N1952       N  0.14078881  0.91819310  0.58425149    -0.05000
N1953       N  0.14108657  0.91763010  0.56180955    -0.61100
Mn1954     Mn  0.15823489  0.94425461  0.60261189     1.18400
C1955       C  0.12945583  0.89884984  0.55630889     0.97200
C1956       C  0.20456921  0.89685933  0.63174871     0.97900
N1957       N  0.08897682  0.98496747  0.63300735    -0.07300
N1958       N  0.07421792  0.99795279  0.62162557    -0.63600
N1959       N  0.11603479  0.97004296  0.68195193    -0.06100
N1960       N  0.11914669  0.97304940  0.70422354    -0.64200
N1961       N  0.12670272  0.98586064  0.67022646    -0.06800
N1962       N  0.13750522  0.99989676  0.68402286    -0.63800
N1963       N  0.07823996  0.96907012  0.64458571    -0.05700
N1964       N  0.05586247  0.97086006  0.64155741    -0.64500
Mn1965     Mn  0.12628849  0.98645630  0.63313210     1.10700
C1966       C  0.05365590  0.98882071  0.62699366     0.98500
C1967       C  0.13282934  0.99166677  0.70516986     0.98500
N1968       N  0.12807158  0.90044861  0.67285685    -0.06800
N1969       N  0.13710100  0.88781560  0.68996104    -0.62100
N1970       N  0.07922756  0.91672240  0.64628219    -0.06100
N1971       N  0.05679187  0.91508294  0.64701292    -0.58900
N1972       N  0.08880227  0.89980474  0.63451954    -0.07400
N1973       N  0.07210205  0.88618965  0.62684882    -0.61700
N1974       N  0.11625801  0.91756451  0.68204148    -0.06400
N1975       N  0.11680942  0.91705573  0.70448297    -0.58900
Mn1976     Mn  0.12858268  0.89853872  0.63302467     1.20200
Mn1977     Mn  0.09722398  0.94332433  0.66396979     1.10100
Cl1978     Cl  0.12761997  0.94256014  0.63316335    -0.86900
C1979       C  0.12963042  0.89863332  0.70968613     0.95500
C1980       C  0.05215005  0.89612498  0.63503412     0.95300
N1981       N  0.12816251  0.66739056  0.98426940    -0.07000
N1982       N  0.13861990  0.68158979  0.99825116    -0.59100
N1983       N  0.07820870  0.64213506  0.97112739    -0.06700
N1984       N  0.05601600  0.64008642  0.97520692    -0.61300
N1985       N  0.09029440  0.63097939  0.98658703    -0.06300
N1986       N  0.07675942  0.62088774  0.00146063    -0.59100
N1987       N  0.11614359  0.67878761  0.96892537    -0.06000
N1988       N  0.11800627  0.70111094  0.97218093    -0.61600
C1989       C  0.13232192  0.70260543  0.99042390     0.95100
C1990       C  0.05543817  0.62654518  0.99410489     0.94900
N1991       N  0.08383736  0.63142075  0.90056747    -0.07200
N1992       N  0.06622623  0.62513752  0.88722313    -0.59700
N1993       N  0.11228526  0.67849944  0.91641285    -0.05300
N1994       N  0.11160101  0.70094362  0.91509715    -0.61000
N1995       N  0.12292007  0.66911622  0.89867968    -0.07200
N1996       N  0.12978815  0.68615715  0.88478512    -0.60000
N1997       N  0.07543161  0.64299415  0.91821151    -0.05000
N1998       N  0.05295935  0.64479853  0.91733182    -0.61100
Mn1999     Mn  0.09534871  0.66069408  0.94367269     1.18400
C2000       C  0.04696528  0.63376176  0.89813977     0.97200
C2001       C  0.12233534  0.70604212  0.89550634     0.97900
N2002       N  0.12657435  0.59273776  0.98595475    -0.07300
N2003       N  0.11591692  0.57906513  0.00038721    -0.63600
N2004       N  0.17549609  0.61721197  0.96795666    -0.06100
N2005       N  0.19798874  0.61854260  0.97058349    -0.64200
N2006       N  0.16478475  0.62922313  0.98373497    -0.06800
N2007       N  0.17957900  0.63929712  0.99734549    -0.63800
N2008       N  0.13720545  0.58077842  0.97007812    -0.05700
N2009       N  0.13425785  0.55857425  0.97338794    -0.64500
Mn2010     Mn  0.12751388  0.63012385  0.98574481     1.10700
C2011       C  0.12070264  0.55779481  0.99225840     0.98500
C2012       C  0.20022980  0.63265972  0.98888397     0.98500
N2013       N  0.16360903  0.62683186  0.89819501    -0.06800
N2014       N  0.18042637  0.63438680  0.88447490    -0.62100
N2015       N  0.13654619  0.57996558  0.91768875    -0.06100
N2016       N  0.13675835  0.55751827  0.91761352    -0.58900
N2017       N  0.12461461  0.58870501  0.90042817    -0.07400
N2018       N  0.11642652  0.57110384  0.88810557    -0.61700
N2019       N  0.17315063  0.61522980  0.91526673    -0.06400
N2020       N  0.19554675  0.61443061  0.91358717    -0.58900
Mn2021     Mn  0.12370476  0.62893039  0.89752486     1.20200
Mn2022     Mn  0.15576696  0.59817195  0.94267460     1.10100
Cl2023     Cl  0.12554144  0.62947287  0.94174168    -0.86900
C2024       C  0.20034090  0.62624646  0.89454425     0.95500
C2025       C  0.12427545  0.55166334  0.89941880     0.95300
N2026       N  0.89243089  0.58959592  0.13290568    -0.07000
N2027       N  0.87871037  0.57284453  0.12559744    -0.59100
N2028       N  0.90862671  0.61568916  0.18121755    -0.06700
N2029       N  0.90714681  0.61514682  0.20366929    -0.61300
N2030       N  0.89163422  0.62761155  0.17186884    -0.06300
N2031       N  0.87816088  0.63565855  0.18874911    -0.59100
N2032       N  0.90954748  0.58009070  0.14450834    -0.06000
N2033       N  0.90788881  0.55771260  0.14565584    -0.61600
C2034       C  0.88877024  0.55306485  0.13401247     0.95100
C2035       C  0.88826965  0.62750984  0.20855566     0.94900
N2036       N  0.97672534  0.62871778  0.17091717    -0.07200
N2037       N  0.98961780  0.63995200  0.18550004    -0.59700
N2038       N  0.96225985  0.58030461  0.14346573    -0.05300
N2039       N  0.96530695  0.55806626  0.14017929    -0.61000
N2040       N  0.97806286  0.59196954  0.13267396    -0.07200
N2041       N  0.99213923  0.57805618  0.12157082    -0.60000
N2042       N  0.96104459  0.61702548  0.18181312    -0.05000
N2043       N  0.96296853  0.61980104  0.20421313    -0.61100
Mn2044     Mn  0.93541663  0.59800774  0.16292148     1.18400
C2045       C  0.98073128  0.63440642  0.20617118     0.97200
C2046       C  0.98392322  0.55696691  0.12629656     0.97900
N2047       N  0.89217179  0.66903403  0.13193716    -0.07300
N2048       N  0.87906592  0.68596433  0.14063519    -0.63600
N2049       N  0.91061675  0.64261467  0.08378419    -0.06100
N2050       N  0.91001991  0.64359587  0.06134905    -0.64200
N2051       N  0.89302017  0.63138496  0.09233457    -0.06800
N2052       N  0.87989796  0.62451146  0.07478041    -0.63800
N2053       N  0.90936046  0.67833202  0.12064488    -0.05700
N2054       N  0.90837581  0.70079516  0.12115102    -0.64500
Mn2055     Mn  0.89043267  0.62940026  0.13215626     1.10700
C2056       C  0.88961552  0.70575265  0.13350597     0.98500
C2057       C  0.89107874  0.63235353  0.05548558     0.98500
N2058       N  0.97888662  0.62993334  0.09658262    -0.06800
N2059       N  0.99379503  0.61997892  0.08275525    -0.62100
N2060       N  0.96168373  0.67808707  0.12313494    -0.06100
N2061       N  0.96396157  0.70036731  0.12616450    -0.58900
N2062       N  0.97730243  0.66662814  0.13474560    -0.07400
N2063       N  0.99058905  0.68078224  0.14612659    -0.61700
N2064       N  0.96337830  0.64141885  0.08485184    -0.06400
N2065       N  0.96748464  0.63978641  0.06258999    -0.58900
Mn2066     Mn  0.97846321  0.62927388  0.13378781     1.20200
Mn2067     Mn  0.93620730  0.66024895  0.10285513     1.10100
Cl2068     Cl  0.93453275  0.62913574  0.13283062    -0.86900
C2069       C  0.98643951  0.62612091  0.06159423     0.95500
C2070       C  0.98194453  0.70177915  0.14074606     0.95300
N2071       N  0.89303693  0.16652523  0.63143138    -0.07000
N2072       N  0.87983874  0.18359480  0.63966234    -0.59100
N2073       N  0.90981117  0.13949300  0.58353256    -0.06700
N2074       N  0.90910584  0.13958549  0.56110004    -0.61300
N2075       N  0.89278086  0.12785807  0.59259615    -0.06300
N2076       N  0.87993827  0.11969948  0.57538352    -0.59100
N2077       N  0.91006632  0.17569040  0.61977416    -0.06000
N2078       N  0.90883735  0.19817459  0.61948728    -0.61600
C2079       C  0.89006358  0.20326325  0.63175023     0.95100
C2080       C  0.89069317  0.12730809  0.55574154     0.94900
N2081       N  0.97765109  0.12564097  0.59374301    -0.07200
N2082       N  0.99088039  0.11452155  0.57905439    -0.59700
N2083       N  0.96264197  0.17472752  0.62036437    -0.05300
N2084       N  0.96550762  0.19699043  0.62276121    -0.61000
N2085       N  0.97867778  0.16319545  0.63132299    -0.07200
N2086       N  0.99279844  0.17727199  0.64172830    -0.60000
N2087       N  0.96180016  0.13747163  0.58284560    -0.05000
N2088       N  0.96387362  0.13490118  0.56044252    -0.61100
Mn2089     Mn  0.93605465  0.15707620  0.60153862     1.18400
C2090       C  0.98197005  0.12033922  0.55833992     0.97200
C2091       C  0.98428439  0.19828179  0.63629247     0.97900
N2092       N  0.89325920  0.08685553  0.63363631    -0.07300
N2093       N  0.88021685  0.06985508  0.62555821    -0.63600
N2094       N  0.91059839  0.11436618  0.68163715    -0.06100
N2095       N  0.90927285  0.11406444  0.70413952    -0.64200
N2096       N  0.89324755  0.12576554  0.67226822    -0.06800
N2097       N  0.87972250  0.13370395  0.68916204    -0.63800
N2098       N  0.91039010  0.07759401  0.64540422    -0.05700
N2099       N  0.90942108  0.05510554  0.64575053    -0.64500
Mn2100     Mn  0.89120498  0.12672834  0.63245209     1.10700
C2101       C  0.89071561  0.05005552  0.63348994     0.98500
C2102       C  0.89012663  0.12605681  0.70901764     0.98500
N2103       N  0.97930543  0.12623686  0.66844239    -0.06800
N2104       N  0.99350431  0.13713897  0.68206200    -0.62100
N2105       N  0.96283387  0.07765576  0.64314479    -0.06100
N2106       N  0.96552872  0.05529997  0.64057736    -0.58900
N2107       N  0.97819103  0.08874582  0.63116478    -0.07400
N2108       N  0.99163525  0.07431640  0.61998348    -0.61700
N2109       N  0.96374445  0.11540544  0.68043379    -0.06400
N2110       N  0.96713603  0.11847857  0.70264944    -0.58900
Mn2111     Mn  0.97922170  0.12589360  0.63112872     1.20200
Mn2112     Mn  0.93689288  0.09607487  0.66299551     1.10100
Cl2113     Cl  0.93527459  0.12645734  0.63213074    -0.86900
C2114       C  0.98565374  0.13231434  0.70333215     0.95500
C2115       C  0.98345058  0.05352579  0.62589561     0.95300
N2116       N  0.58263211  0.98279081  0.13049373    -0.07000
N2117       N  0.56814324  0.99499413  0.11798446    -0.59100
N2118       N  0.60839443  0.96910157  0.18041771    -0.06700
N2119       N  0.61111707  0.97180255  0.20270451    -0.61300
N2120       N  0.61928527  0.98501539  0.16899220    -0.06300
N2121       N  0.62995074  0.99887902  0.18317471    -0.59100
N2122       N  0.57174520  0.96699093  0.14206544    -0.06000
N2123       N  0.54949952  0.96812344  0.13788148    -0.61600
C2124       C  0.54755439  0.98553050  0.12260343     0.95100
C2125       C  0.62477583  0.99031130  0.20410944     0.94900
N2126       N  0.62115158  0.89929213  0.17332251    -0.07200
N2127       N  0.62884274  0.88610663  0.19058391    -0.59700
N2128       N  0.57340234  0.91490267  0.14509968    -0.05300
N2129       N  0.55098489  0.91350540  0.14488077    -0.61000
N2130       N  0.58332193  0.89778242  0.13394748    -0.07200
N2131       N  0.56682324  0.88421166  0.12572288    -0.60000
N2132       N  0.60908147  0.91645934  0.18214445    -0.05000
N2133       N  0.60821348  0.91541485  0.20463808    -0.61100
Mn2134     Mn  0.59046204  0.94191113  0.16273031     1.18400
C2135       C  0.62046516  0.89659481  0.21007332     0.97200
C2136       C  0.54664596  0.89450144  0.13289578     0.97900
N2137       N  0.65718090  0.98541468  0.13271002    -0.07300
N2138       N  0.67069596  0.00028382  0.14280350    -0.63600
N2139       N  0.63289650  0.96757205  0.08391964    -0.06100
N2140       N  0.63111969  0.96973907  0.06146312    -0.64200
N2141       N  0.62057609  0.98330629  0.09441047    -0.06800
N2142       N  0.60991695  0.99655734  0.07938560    -0.63800
N2143       N  0.66934979  0.96958677  0.12215287    -0.05700
N2144       N  0.69148925  0.97333796  0.12456436    -0.64500
Mn2145     Mn  0.61983757  0.98497748  0.13168028     1.10700
C2146       C  0.69204511  0.99241093  0.13772250     0.98500
C2147       C  0.61651363  0.98774681  0.05889649     0.98500
N2148       N  0.62485200  0.89832778  0.09403818    -0.06800
N2149       N  0.61713454  0.88508826  0.07700132    -0.62100
N2150       N  0.67174298  0.91700764  0.12192973    -0.06100
N2151       N  0.69422137  0.91609298  0.12134539    -0.58900
N2152       N  0.66297572  0.89943913  0.13307393    -0.07400
N2153       N  0.68038313  0.88605419  0.14038710    -0.61700
N2154       N  0.63624935  0.91548650  0.08489294    -0.06400
N2155       N  0.63674234  0.91438823  0.06244756    -0.58900
Mn2156     Mn  0.62314034  0.89684075  0.13363976     1.20200
Mn2157     Mn  0.65277922  0.94239637  0.10314282     1.10100
Cl2158     Cl  0.62165380  0.94097104  0.13291735    -0.86900
C2159       C  0.62500233  0.89552389  0.05734448     0.95500
C2160       C  0.69984504  0.89691977  0.13273157     0.95300
C2161       C  0.01891442  0.60642469  0.04268177    -0.22200
C2162       C  0.00013169  0.62160196  0.04086982    -0.10300
C2163       C  0.99717629  0.63461060  0.02067830     0.28600
C2164       C  0.01451856  0.63464120  0.00405701    -0.22200
C2165       C  0.03472129  0.62167556  0.00751395    -0.10300
C2166       C  0.03611035  0.60642813  0.02619030     0.28600
F2167       F  0.05488630  0.59279965  0.02955530    -0.20800
H2168       H  0.02119269  0.59568666  0.05775135     0.17000
H2169       H  0.01291368  0.64613825  0.98948261     0.17000
F2170       F  0.97866265  0.64872690  0.01788366    -0.20800
C2171       C  0.01270908  0.03245955  0.60359925    -0.22200
C2172       C  0.99602310  0.03222039  0.62096856    -0.10300
C2173       C  0.99524396  0.01363362  0.63636627     0.28600
C2174       C  0.01309352  0.99748652  0.63647717    -0.22200
C2175       C  0.03172977  0.99998805  0.62142776    -0.10300
C2176       C  0.03059713  0.01645662  0.60383642     0.28600
F2177       F  0.04781369  0.01845405  0.58824637    -0.20800
H2178       H  0.01315678  0.04633090  0.59117753     0.17000
H2179       H  0.01350668  0.98459650  0.64991526     0.17000
F2180       F  0.97905667  0.01264391  0.65312962    -0.20800
C2181       C  0.62950742  0.99755443  0.01968444    -0.22200
C2182       C  0.61296038  0.99983469  0.03712702    -0.10300
C2183       C  0.59600010  0.01705962  0.03549027     0.28600
C2184       C  0.59762043  0.03370152  0.01848949    -0.22200
C2185       C  0.61621340  0.03339008  0.00315826    -0.10300
C2186       C  0.63130712  0.01441966  0.00277942     0.28600
F2187       F  0.64941986  0.01360246  0.98809417    -0.20800
H2188       H  0.64258364  0.98418783  0.02052823     0.17000
H2189       H  0.58548475  0.04796432  0.01861942     0.17000
F2190       F  0.57919302  0.01911651  0.05155135    -0.20800
C2191       C  0.38790269  0.64465205  0.51545778    -0.22200
C2192       C  0.38013953  0.62933375  0.53270862    -0.10300
C2193       C  0.36920433  0.60928815  0.52574293     0.28600
C2194       C  0.36669926  0.60445065  0.50226692    -0.22200
C2195       C  0.37494682  0.61941099  0.48489454    -0.10300
C2196       C  0.38528479  0.63986293  0.49186498     0.28600
F2197       F  0.39308266  0.65504330  0.47605873    -0.20800
H2198       H  0.39652151  0.66030603  0.52028092     0.17000
H2199       H  0.35856592  0.58845178  0.49776228     0.17000
F2200       F  0.36213712  0.59369656  0.54150587    -0.20800
C2201       C  0.48846291  0.51664543  0.64107077    -0.22200
C2202       C  0.49004984  0.53398661  0.62439352    -0.10300
C2203       C  0.50676130  0.53227659  0.60710693     0.28600
C2204       C  0.52396110  0.51564316  0.60877225    -0.22200
C2205       C  0.52451208  0.50065269  0.62760629    -0.10300
C2206       C  0.50572450  0.49993211  0.64275383     0.28600
F2207       F  0.50548812  0.48517457  0.66083488    -0.20800
H2208       H  0.47540769  0.51748845  0.65432613     0.17000
H2209       H  0.53797561  0.51586789  0.59651324     0.17000
F2210       F  0.50784029  0.54807954  0.58999110    -0.20800
C2211       C  0.47815839  0.40625615  0.63659416    -0.22200
C2212       C  0.47082584  0.38421515  0.63105449    -0.10300
C2213       C  0.48763770  0.36655844  0.62862257     0.28600
C2214       C  0.51124695  0.37111721  0.63095010    -0.22200
C2215       C  0.51866556  0.39338025  0.63577969    -0.10300
C2216       C  0.50166426  0.41087824  0.63883886     0.28600
F2217       F  0.50769739  0.43290670  0.64315071    -0.20800
H2218       H  0.46578278  0.42024202  0.63789116     0.17000
H2219       H  0.52366480  0.35725065  0.62904861     0.17000
F2220       F  0.48118119  0.34480924  0.62361242    -0.20800
C2221       C  0.37253696  0.49348015  0.51487929    -0.22200
C2222       C  0.38603650  0.47358196  0.51208960    -0.10300
C2223       C  0.40210792  0.47241421  0.49407655     0.28600
C2224       C  0.40175426  0.48906653  0.47697807    -0.22200
C2225       C  0.38560159  0.50706329  0.47783917    -0.10300
C2226       C  0.37232059  0.51029879  0.49780593     0.28600
F2227       F  0.35720702  0.52813494  0.49965892    -0.20800
H2228       H  0.36045791  0.49495547  0.52898118     0.17000
H2229       H  0.41270842  0.48674623  0.46208379     0.17000
F2230       F  0.41651114  0.45405695  0.49168413    -0.20800
C2231       C  0.36142616  0.50022711  0.60990353    -0.22200
C2232       C  0.37246078  0.48307673  0.62353055    -0.10300
C2233       C  0.38644156  0.49039364  0.64160734     0.28600
C2234       C  0.38972321  0.51402261  0.64536964    -0.22200
C2235       C  0.37923468  0.53114565  0.63128515    -0.10300
C2236       C  0.36473305  0.52384180  0.61365426     0.28600
F2237       F  0.35453827  0.53935439  0.59941239    -0.20800
H2238       H  0.35040482  0.49539735  0.59577457     0.17000
H2239       H  0.40104352  0.51890530  0.65924604     0.17000
F2240       F  0.39744670  0.47486171  0.65523567    -0.20800
C2241       C  0.62688322  0.51333165  0.76847011    -0.22200
C2242       C  0.64066960  0.53263015  0.76513533    -0.10300
C2243       C  0.65650278  0.53281767  0.74692526     0.28600
C2244       C  0.65481780  0.51652125  0.72958121    -0.22200
C2245       C  0.63779822  0.49972602  0.73072804    -0.10300
C2246       C  0.62543643  0.49678025  0.75127476     0.28600
F2247       F  0.60975499  0.47986139  0.75352700    -0.20800
H2248       H  0.61513714  0.51246406  0.78287891     0.17000
H2249       H  0.66527816  0.51838894  0.71430251     0.17000
F2250       F  0.67159316  0.55025643  0.74444030    -0.20800
C2251       C  0.51195563  0.62156048  0.76047115    -0.22200
C2252       C  0.53070734  0.63630080  0.75825899    -0.10300
C2253       C  0.53036121  0.65356489  0.74140979     0.28600
C2254       C  0.51288565  0.65414811  0.72519541    -0.22200
C2255       C  0.49571411  0.63751818  0.72559481    -0.10300
C2256       C  0.49445956  0.62206878  0.74413062     0.28600
F2257       F  0.47794956  0.60581590  0.74506423    -0.20800
H2258       H  0.51187909  0.60827179  0.77351647     0.17000
H2259       H  0.51378758  0.66648341  0.71127156     0.17000
F2260       F  0.54780314  0.66872511  0.73950500    -0.20800
C2261       C  0.25882217  0.50781415  0.39309487    -0.22200
C2262       C  0.27694494  0.50671416  0.37722674    -0.10300
C2263       C  0.27597235  0.49116745  0.35886988     0.28600
C2264       C  0.25879833  0.47485062  0.35822578    -0.22200
C2265       C  0.24245433  0.47389499  0.37584110    -0.10300
C2266       C  0.24152349  0.49142659  0.39244556     0.28600
F2267       F  0.22560471  0.49124025  0.40950134    -0.20800
H2268       H  0.25917425  0.51991580  0.40720696     0.17000
H2269       H  0.25939542  0.46180777  0.34496547     0.17000
F2270       F  0.29264050  0.49054988  0.34257345    -0.20800
C2271       C  0.28326178  0.35380856  0.49049194    -0.22200
C2272       C  0.28131724  0.36948183  0.50867331    -0.10300
C2273       C  0.26082363  0.38223882  0.51142682     0.28600
C2274       C  0.24398019  0.38156650  0.49437743    -0.22200
C2275       C  0.24751162  0.36822099  0.47460309    -0.10300
C2276       C  0.26649286  0.35312184  0.47353473     0.28600
F2277       F  0.26984115  0.33904768  0.45521686    -0.20800
H2278       H  0.29859699  0.34327427  0.48843636     0.17000
H2279       H  0.22921786  0.39299100  0.49572354     0.17000
F2280       F  0.25796937  0.39697041  0.52928308    -0.20800
C2281       C  0.49834146  0.74005057  0.62437001    -0.22200
C2282       C  0.50051552  0.72098197  0.63904708    -0.10300
C2283       C  0.51885695  0.71993059  0.65472735     0.28600
C2284       C  0.53623720  0.73605974  0.65361671    -0.22200
C2285       C  0.53552142  0.75352005  0.63703929    -0.10300
C2286       C  0.51575835  0.75635116  0.62335820     0.28600
F2287       F  0.51420178  0.77347575  0.60756161    -0.20800
H2288       H  0.48414017  0.74138110  0.61239855     0.17000
H2289       H  0.55099701  0.73401941  0.66480648     0.17000
F2290       F  0.52085759  0.70244673  0.67008222    -0.20800
C2291       C  0.62406629  0.75562278  0.74128787    -0.22200
C2292       C  0.61354164  0.75123917  0.72008359    -0.10300
C2293       C  0.59900024  0.73228267  0.71786738     0.28600
C2294       C  0.59786864  0.71620672  0.73544565    -0.22200
C2295       C  0.61126955  0.71877770  0.75527910    -0.10300
C2296       C  0.62293152  0.73944991  0.75893337     0.28600
F2297       F  0.63508931  0.74304473  0.77846728    -0.20800
H2298       H  0.63481089  0.77051152  0.74354603     0.17000
H2299       H  0.58809199  0.70074745  0.73261479     0.17000
F2300       F  0.58749772  0.72813558  0.69802813    -0.20800
C2301       C  0.26136803  0.24918506  0.37775153    -0.22200
C2302       C  0.27876944  0.25018403  0.39433818    -0.10300
C2303       C  0.27805080  0.26736166  0.41122381     0.28600
C2304       C  0.26196499  0.28511763  0.40954939    -0.22200
C2305       C  0.24643154  0.28570301  0.39118060    -0.10300
C2306       C  0.24527098  0.26696708  0.37602944     0.28600
F2307       F  0.23048802  0.26707293  0.35798475    -0.20800
H2308       H  0.26165106  0.23600746  0.36462779     0.17000
H2309       H  0.26267646  0.29919318  0.42167973     0.17000
F2310       F  0.29408434  0.26803161  0.42813557    -0.20800
C2311       C  0.34905832  0.28855078  0.49401385    -0.22200
C2312       C  0.36568333  0.28737019  0.51144076    -0.10300
C2313       C  0.37963437  0.26760420  0.51343273     0.28600
C2314       C  0.37910680  0.25090458  0.49621863    -0.22200
C2315       C  0.36468577  0.25385843  0.47705751    -0.10300
C2316       C  0.34850944  0.27194431  0.47690838     0.28600
F2317       F  0.33338711  0.27464582  0.45932735    -0.20800
H2318       H  0.33759776  0.30329060  0.49259573     0.17000
H2319       H  0.39136184  0.23677598  0.49691734     0.17000
F2320       F  0.39531403  0.26548184  0.53058139    -0.20800
C2321       C  0.39390294  0.12170474  0.27772524    -0.22200
C2322       C  0.37635075  0.13679547  0.28443658    -0.10300
C2323       C  0.36311577  0.14766771  0.26679771     0.28600
C2324       C  0.36809858  0.14421464  0.24335524    -0.22200
C2325       C  0.38625501  0.12978393  0.23665968    -0.10300
C2326       C  0.39881824  0.11816725  0.25432435     0.28600
F2327       F  0.41629994  0.10341799  0.24918666    -0.20800
H2328       H  0.40429760  0.11305877  0.29060365     0.17000
H2329       H  0.35799251  0.15319816  0.23047788     0.17000
F2330       F  0.34534675  0.16203634  0.27206480    -0.20800
C2331       C  0.50893574  0.03148760  0.10123535    -0.22200
C2332       C  0.49238279  0.03088578  0.11870925    -0.10300
C2333       C  0.48963764  0.01069099  0.13160126     0.28600
C2334       C  0.50644488  0.99347436  0.13035186    -0.22200
C2335       C  0.52571792  0.99652041  0.11622069    -0.10300
C2336       C  0.52558594  0.01427308  0.09988961     0.28600
F2337       F  0.54308077  0.01659795  0.08467464    -0.20800
H2338       H  0.51059829  0.04648754  0.09036068     0.17000
H2339       H  0.50580917  0.97936698  0.14248043     0.17000
F2340       F  0.47276392  0.00894123  0.14759081    -0.20800
C2341       C  0.53313425  0.09623328  0.02395553    -0.22200
C2342       C  0.53174241  0.11276284  0.00645579    -0.10300
C2343       C  0.51149981  0.12598663  0.00398105     0.28600
C2344       C  0.49467749  0.12526776  0.02102533    -0.22200
C2345       C  0.49795607  0.11135769  0.04046780    -0.10300
C2346       C  0.51625219  0.09539602  0.04085471     0.28600
F2347       F  0.51899621  0.08050252  0.05863886    -0.20800
H2348       H  0.54820907  0.08526173  0.02565931     0.17000
H2349       H  0.48034785  0.13727822  0.02010783     0.17000
F2350       F  0.50907810  0.14146867  0.98667205    -0.20800
C2351       C  0.34591863  0.63791771  0.25212862    -0.22200
C2352       C  0.36017368  0.62744416  0.23520334    -0.10300
C2353       C  0.37931860  0.61474455  0.24265977     0.28600
C2354       C  0.38330963  0.61165586  0.26627005    -0.22200
C2355       C  0.36838208  0.62108921  0.28315198    -0.10300
C2356       C  0.34993942  0.63484013  0.27576936     0.28600
F2357       F  0.33506761  0.64418276  0.29120825    -0.20800
H2358       H  0.33105815  0.64810112  0.24711005     0.17000
H2359       H  0.39789863  0.60110754  0.27135813     0.17000
F2360       F  0.39377086  0.60471523  0.22726545    -0.20800
C2361       C  0.25625939  0.62046790  0.01825232    -0.22200
C2362       C  0.25372119  0.63538490  0.03704673    -0.10300
C2363       C  0.23747200  0.65333805  0.03599536     0.28600
C2364       C  0.22156189  0.65399260  0.01822091    -0.22200
C2365       C  0.22168558  0.63678709  0.00138684    -0.10300
C2366       C  0.24025388  0.62113196  0.00035173     0.28600
F2367       F  0.24148364  0.60487198  0.98369185    -0.20800
H2368       H  0.26911240  0.60685913  0.01851293     0.17000
H2369       H  0.20784923  0.66673249  0.01883397     0.17000
F2370       F  0.23560370  0.66898656  0.05319470    -0.20800
C2371       C  0.34866995  0.25067615  0.64463986    -0.22200
C2372       C  0.36135067  0.23331721  0.63293364    -0.10300
C2373       C  0.37881965  0.24007127  0.61796857     0.28600
C2374       C  0.38284868  0.26351882  0.61427833    -0.22200
C2375       C  0.36958537  0.28088247  0.62534779    -0.10300
C2376       C  0.35266648  0.27411086  0.64091562     0.28600
F2377       F  0.33939764  0.28999387  0.65185114    -0.20800
H2378       H  0.33509303  0.24615928  0.65647606     0.17000
H2379       H  0.39619407  0.26805557  0.60218676     0.17000
F2380       F  0.39141857  0.22417528  0.60628576    -0.20800
C2381       C  0.35414507  0.12040511  0.51773283    -0.22200
C2382       C  0.36642130  0.13246688  0.53491230    -0.10300
C2383       C  0.38410335  0.14692909  0.52773463     0.28600
C2384       C  0.38835795  0.15012688  0.50409663    -0.22200
C2385       C  0.37521165  0.13895503  0.48696556    -0.10300
C2386       C  0.35840958  0.12356113  0.49418701     0.28600
F2387       F  0.34528831  0.11241687  0.47859716    -0.20800
H2388       H  0.34052718  0.10880352  0.52244690     0.17000
H2389       H  0.40169770  0.16197119  0.49918333     0.17000
F2390       F  0.39670482  0.15857715  0.54337498    -0.20800
C2391       C  0.23624293  0.03772966  0.66217823    -0.22200
C2392       C  0.25345195  0.03754040  0.64536823    -0.10300
C2393       C  0.25575582  0.01858625  0.63057568     0.28600
C2394       C  0.23882136  0.00188197  0.63040301    -0.22200
C2395       C  0.21965195  0.00414041  0.64486528    -0.10300
C2396       C  0.21932678  0.02115292  0.66191193     0.28600
F2397       F  0.20159790  0.02304617  0.67691882    -0.20800
H2398       H  0.23463249  0.05189662  0.67414963     0.17000
H2399       H  0.23955342  0.98860359  0.61739559     0.17000
F2400       F  0.27259224  0.01761196  0.61444440    -0.20800
C2401       C  0.48438942  0.25067995  0.38371598    -0.22200
C2402       C  0.46449220  0.25373154  0.37043326    -0.10300
C2403       C  0.46287258  0.27254195  0.35530401     0.28600
C2404       C  0.47910800  0.28986233  0.35635522    -0.22200
C2405       C  0.49718558  0.28841918  0.37222662    -0.10300
C2406       C  0.50077053  0.26791729  0.38460135     0.28600
F2407       F  0.51866669  0.26547074  0.39938660    -0.20800
H2408       H  0.48626334  0.23601653  0.39506504     0.17000
H2409       H  0.47651829  0.30517695  0.34603972     0.17000
F2410       F  0.44460974  0.27522326  0.34098896    -0.20800
C2411       C  0.50411701  0.38228632  0.50014583    -0.22200
C2412       C  0.49986410  0.39454206  0.47975392    -0.10300
C2413       C  0.48135015  0.41024189  0.47887195     0.28600
C2414       C  0.46522282  0.41052916  0.49644021    -0.22200
C2415       C  0.46728440  0.39514884  0.51490783    -0.10300
C2416       C  0.48786222  0.38262169  0.51782449     0.28600
F2417       F  0.49109605  0.36874664  0.53632041    -0.20800
H2418       H  0.51875632  0.37070110  0.50149140     0.17000
H2419       H  0.44990518  0.42106914  0.49434059     0.17000
F2420       F  0.47739630  0.42349715  0.46002554    -0.20800
C2421       C  0.62319157  0.39840832  0.49452255    -0.22200
C2422       C  0.61111025  0.37893936  0.48801037    -0.10300
C2423       C  0.60263083  0.36440448  0.50566318     0.28600
C2424       C  0.60546407  0.36984960  0.52910836    -0.22200
C2425       C  0.61678349  0.38989635  0.53564709    -0.10300
C2426       C  0.62594866  0.40393809  0.51782226     0.28600
F2427       F  0.63725754  0.42360324  0.52264197    -0.20800
H2428       H  0.62970019  0.40998154  0.48153660     0.17000
H2429       H  0.59850274  0.35855314  0.54208976     0.17000
F2430       F  0.59129975  0.34489364  0.50029183    -0.20800
C2431       C  0.48410098  0.47600360  0.41394832    -0.22200
C2432       C  0.50108142  0.47566071  0.39687117    -0.10300
C2433       C  0.50220036  0.49380541  0.38095885     0.28600
C2434       C  0.48434203  0.50992510  0.37996661    -0.22200
C2435       C  0.46542905  0.50789057  0.39472732    -0.10300
C2436       C  0.46627439  0.49205807  0.41291837     0.28600
F2437       F  0.44885080  0.49069390  0.42836147    -0.20800
H2438       H  0.48339886  0.46250280  0.42675570     0.17000
H2439       H  0.48417434  0.52237871  0.36611871     0.17000
F2440       F  0.51871620  0.49427833  0.36449458    -0.20800
C2441       C  0.50318022  0.63064790  0.40977768    -0.22200
C2442       C  0.52062050  0.62159421  0.39516291    -0.10300
C2443       C  0.51366321  0.60914998  0.37582173     0.28600
C2444       C  0.49005164  0.60590023  0.37146834    -0.22200
C2445       C  0.47272302  0.61505525  0.38614179    -0.10300
C2446       C  0.47970744  0.62751846  0.40537556     0.28600
F2447       F  0.46396094  0.63598857  0.42043804    -0.20800
H2448       H  0.50763400  0.64021882  0.42504442     0.17000
H2449       H  0.48530297  0.59600814  0.35649744     0.17000
F2450       F  0.52950523  0.60014314  0.36117610    -0.20800
C2451       C  0.52540879  0.60091210  0.52063376    -0.22200
C2452       C  0.52491253  0.61828785  0.50394159    -0.10300
C2453       C  0.50536363  0.63255844  0.50196860     0.28600
C2454       C  0.48852552  0.63197624  0.51903144    -0.22200
C2455       C  0.49117054  0.61715555  0.53792338    -0.10300
C2456       C  0.50856337  0.60024307  0.53754635     0.28600
F2457       F  0.51062784  0.58456809  0.55472804    -0.20800
H2458       H  0.53996029  0.58918637  0.52187625     0.17000
H2459       H  0.47484637  0.64475143  0.51868673     0.17000
F2460       F  0.50388452  0.64892970  0.48539003    -0.20800
C2461       C  0.61933925  0.50083709  0.52422033    -0.22200
C2462       C  0.60552138  0.50425124  0.54372305    -0.10300
C2463       C  0.58982852  0.52275785  0.54418236     0.28600
C2464       C  0.59067434  0.53951215  0.52715564    -0.22200
C2465       C  0.60711961  0.53795383  0.50957665    -0.10300
C2466       C  0.62016714  0.51762699  0.50712130     0.28600
F2467       F  0.63548238  0.51502733  0.48969671    -0.20800
H2468       H  0.63114267  0.48634600  0.52324440     0.17000
H2469       H  0.57981190  0.55465925  0.52886210     0.17000
F2470       F  0.57513715  0.52577161  0.56208577    -0.20800
C2471       C  0.61086663  0.51913644  0.37923810    -0.22200
C2472       C  0.62285152  0.52609114  0.39877963    -0.10300
C2473       C  0.63233057  0.50859449  0.41325464     0.28600
C2474       C  0.62874050  0.48510632  0.40882880    -0.22200
C2475       C  0.61576009  0.47825960  0.38987850    -0.10300
C2476       C  0.60745542  0.49568800  0.37473934     0.28600
F2477       F  0.59555258  0.49014240  0.35551971    -0.20800
H2478       H  0.60374179  0.53186291  0.36758002     0.17000
H2479       H  0.63533907  0.47235924  0.42076738     0.17000
F2480       F  0.64470067  0.51402200  0.43221593    -0.20800
C2481       C  0.65210475  0.72431478  0.51683055    -0.22200
C2482       C  0.63370145  0.72506077  0.50131070    -0.10300
C2483       C  0.62037074  0.74524342  0.49932043     0.28600
C2484       C  0.62288414  0.76268198  0.51555354    -0.22200
C2485       C  0.63871199  0.75994441  0.53358934    -0.10300
C2486       C  0.65475223  0.74175477  0.53283769     0.28600
F2487       F  0.67130259  0.73945797  0.54914950    -0.20800
H2488       H  0.66313808  0.70923460  0.51799297     0.17000
H2489       H  0.61073688  0.77692362  0.51549850     0.17000
F2490       F  0.60308803  0.74689633  0.48373158    -0.20800
C2491       C  0.39261182  0.26871412  0.12604259    -0.22200
C2492       C  0.37560550  0.27527273  0.14173187    -0.10300
C2493       C  0.36270766  0.25765261  0.15253557     0.28600
C2494       C  0.36775405  0.23432255  0.14876739    -0.22200
C2495       C  0.38559548  0.22774705  0.13405632    -0.10300
C2496       C  0.39756088  0.24534106  0.12215094     0.28600
F2497       F  0.41454352  0.24012964  0.10697370    -0.20800
H2498       H  0.40265632  0.28164632  0.11736937     0.17000
H2499       H  0.35806165  0.22141739  0.15787992     0.17000
F2500       F  0.34533825  0.26282557  0.16729167    -0.20800
C2501       C  0.38404241  0.49415471  0.15719543    -0.22200
C2502       C  0.37325655  0.47725322  0.14344827    -0.10300
C2503       C  0.36045647  0.48478680  0.12445837     0.28600
C2504       C  0.35719540  0.50846947  0.12051746    -0.22200
C2505       C  0.36669169  0.52532492  0.13524705    -0.10300
C2506       C  0.38089866  0.51780000  0.15316413     0.28600
F2507       F  0.39067846  0.53314021  0.16757929    -0.20800
H2508       H  0.39451134  0.48912961  0.17177528     0.17000
H2509       H  0.34644593  0.51362799  0.10618036     0.17000
F2510       F  0.35045394  0.46943873  0.11019483    -0.20800
C2511       C  0.34458337  0.46672603  0.27656913    -0.22200
C2512       C  0.36056803  0.46783683  0.25860268    -0.10300
C2513       C  0.37296214  0.48817143  0.25521751     0.28600
C2514       C  0.37175031  0.50565170  0.27161250    -0.22200
C2515       C  0.35818223  0.50294995  0.29134868    -0.10300
C2516       C  0.34326506  0.48419106  0.29280108     0.28600
F2517       F  0.32886416  0.48167878  0.31095001    -0.20800
H2518       H  0.33427495  0.45155219  0.27904998     0.17000
H2519       H  0.38301358  0.52022848  0.26989414     0.17000
F2520       F  0.38792185  0.49026066  0.23746440    -0.20800
C2521       C  0.26152197  0.40544364  0.28791916    -0.22200
C2522       C  0.24432194  0.38881019  0.28778245    -0.10300
C2523       C  0.24270809  0.37361119  0.26909056     0.28600
C2524       C  0.26013465  0.37299037  0.25265177    -0.22200
C2525       C  0.27917757  0.38733479  0.25494851    -0.10300
C2526       C  0.27891402  0.40475495  0.27158100     0.28600
F2527       F  0.29649492  0.41976826  0.27333080    -0.20800
H2528       H  0.26263715  0.41773729  0.30182481     0.17000
H2529       H  0.25987406  0.35972077  0.23962631     0.17000
F2530       F  0.22597614  0.35759834  0.26811665    -0.20800
C2531       C  0.40031560  0.26189410  0.28903789    -0.22200
C2532       C  0.38300713  0.24539136  0.28893454    -0.10300
C2533       C  0.36844564  0.24365781  0.26975642     0.28600
C2534       C  0.36865248  0.26089631  0.25302184    -0.22200
C2535       C  0.38348552  0.27960469  0.25539034    -0.10300
C2536       C  0.40056970  0.27898268  0.27239614     0.28600
F2537       F  0.41608518  0.29609658  0.27430511    -0.20800
H2538       H  0.41225891  0.26294507  0.30326919     0.17000
H2539       H  0.35573244  0.26077837  0.23963016     0.17000
F2540       F  0.35227952  0.22708328  0.26856551    -0.20800
C2541       C  0.50135215  0.38623916  0.27420866    -0.22200
C2542       C  0.50112534  0.37034810  0.29227944    -0.10300
C2543       C  0.48611756  0.35167448  0.29147331     0.28600
C2544       C  0.46926908  0.35086110  0.27455371    -0.22200
C2545       C  0.46750486  0.36848757  0.25822499    -0.10300
C2546       C  0.48455063  0.38541270  0.25720139     0.28600
F2547       F  0.48344762  0.40269814  0.24154708    -0.20800
H2548       H  0.51296555  0.40063826  0.27450549     0.17000
H2549       H  0.45661600  0.33737591  0.27520387     0.17000
F2550       F  0.48659238  0.33525225  0.30805709    -0.20800
C2551       C  0.23814909  0.49507014  0.13360635    -0.22200
C2552       C  0.21883284  0.49791095  0.14778179    -0.10300
C2553       C  0.21844240  0.51559994  0.16417841     0.28600
C2554       C  0.23511908  0.53248147  0.16350366    -0.22200
C2555       C  0.25236158  0.53167419  0.14669242    -0.10300
C2556       C  0.25495590  0.51192619  0.13302116     0.28600
F2557       F  0.27194464  0.51023266  0.11710994    -0.20800
H2558       H  0.23902064  0.48122538  0.12121212     0.17000
H2559       H  0.23334085  0.54721656  0.17474952     0.17000
F2560       F  0.20074141  0.51789634  0.17924505    -0.20800
C2561       C  0.23160961  0.38136472  0.15982583    -0.22200
C2562       C  0.22384347  0.38498977  0.13740740    -0.10300
C2563       C  0.24037783  0.38690078  0.11963616     0.28600
C2564       C  0.26410057  0.38526979  0.12428732    -0.22200
C2565       C  0.27190222  0.38188216  0.14680081    -0.10300
C2566       C  0.25523082  0.37999458  0.16455615     0.28600
F2567       F  0.26172799  0.37743424  0.18683409    -0.20800
H2568       H  0.21943726  0.38081780  0.17389741     0.17000
H2569       H  0.27629201  0.38634830  0.11028004     0.17000
F2570       F  0.23350656  0.39062920  0.09764494    -0.20800
C2571       C  0.14577572  0.36913310  0.26455260    -0.22200
C2572       C  0.13120866  0.37929342  0.28143221    -0.10300
C2573       C  0.11203176  0.39187111  0.27384233     0.28600
C2574       C  0.10833100  0.39510221  0.25015363    -0.22200
C2575       C  0.12356439  0.38586776  0.23340635    -0.10300
C2576       C  0.14207172  0.37234338  0.24093817     0.28600
F2577       F  0.15734539  0.36335046  0.22567836    -0.20800
H2578       H  0.16070890  0.35905571  0.26956426     0.17000
H2579       H  0.09371221  0.40552477  0.24489992     0.17000
F2580       F  0.09728008  0.40158071  0.28915053    -0.20800
C2581       C  0.09974278  0.52065792  0.04002754    -0.22200
C2582       C  0.11666889  0.50331181  0.03982857    -0.10300
C2583       C  0.13091474  0.50083289  0.02042844     0.28600
C2584       C  0.13045244  0.51759414  0.00323128    -0.22200
C2585       C  0.11576127  0.53676890  0.00526195    -0.10300
C2586       C  0.09913157  0.53720852  0.02274482     0.28600
F2587       F  0.08342685  0.55455857  0.02409328    -0.20800
H2588       H  0.08799954  0.52235544  0.05439071     0.17000
H2589       H  0.14304857  0.51664433  0.98954881     0.17000
F2590       F  0.14689384  0.48371223  0.01918464    -0.20800
C2591       C  0.01202524  0.49951988  0.13451129    -0.22200
C2592       C  0.03157718  0.50254812  0.12077841    -0.10300
C2593       C  0.03184929  0.52030507  0.10445859     0.28600
C2594       C  0.01449737  0.53692153  0.10456836    -0.22200
C2595       C  0.99673268  0.53584721  0.12080925    -0.10300
C2596       C  0.99454544  0.51610261  0.13452901     0.28600
F2597       F  0.97704596  0.51403835  0.14978723    -0.20800
H2598       H  0.01125245  0.48557628  0.14681734     0.17000
H2599       H  0.01601416  0.55163111  0.09326771     0.17000
F2600       F  0.04980747  0.52272075  0.08978704    -0.20800
C2601       C  0.22851113  0.38728365  0.61482603    -0.22200
C2602       C  0.22193901  0.37154047  0.63164724    -0.10300
C2603       C  0.23962110  0.36081600  0.64494406     0.28600
C2604       C  0.26301447  0.36489036  0.64060599    -0.22200
C2605       C  0.26962858  0.37977837  0.62301359    -0.10300
C2606       C  0.25190955  0.39140044  0.61051765     0.28600
F2607       F  0.25703498  0.40657556  0.59361283    -0.20800
H2608       H  0.21557507  0.39584160  0.60440972     0.17000
H2609       H  0.27594867  0.35589743  0.65065891     0.17000
F2610       F  0.23444120  0.34590224  0.66207848    -0.20800
C2611       C  0.21462271  0.24086009  0.60165005    -0.22200
C2612       C  0.21602075  0.25950867  0.61674609    -0.10300
C2613       C  0.23623098  0.26274149  0.62951179     0.28600
C2614       C  0.25266676  0.24512832  0.63048955    -0.22200
C2615       C  0.24897825  0.22455597  0.61858150    -0.10300
C2616       C  0.23095614  0.22334327  0.60259970     0.28600
F2617       F  0.22768018  0.20424839  0.58970455    -0.20800
H2618       H  0.19959970  0.23855312  0.59093550     0.17000
H2619       H  0.26694112  0.24668789  0.64230386     0.17000
F2620       F  0.23884499  0.28145911  0.64310359    -0.20800
C2621       C  0.11213924  0.35504134  0.51508477    -0.22200
C2622       C  0.12376585  0.36787475  0.53218822    -0.10300
C2623       C  0.13932126  0.38448247  0.52486737     0.28600
C2624       C  0.14335741  0.38775740  0.50125241    -0.22200
C2625       C  0.13207676  0.37459255  0.48418315    -0.10300
C2626       C  0.11619931  0.35829279  0.49148520     0.28600
F2627       F  0.10519664  0.34495220  0.47598748    -0.20800
H2628       H  0.09997432  0.34197745  0.51994171     0.17000
H2629       H  0.15577416  0.40056807  0.49635525     0.17000
F2630       F  0.15107326  0.39711618  0.54040338    -0.20800
C2631       C  0.01286070  0.21971468  0.65870371    -0.22200
C2632       C  0.99661254  0.21948275  0.64094967    -0.10300
C2633       C  0.99514525  0.23806592  0.62556226     0.28600
C2634       C  0.01154124  0.25524623  0.62639103    -0.22200
C2635       C  0.02950259  0.25389160  0.64239446    -0.10300
C2636       C  0.02925407  0.23687018  0.65948474     0.28600
F2637       F  0.04579817  0.23586529  0.67588425    -0.20800
H2638       H  0.01386470  0.20575598  0.67100626     0.17000
H2639       H  0.01139953  0.26833725  0.61314553     0.17000
F2640       F  0.97963372  0.23834623  0.60814231    -0.20800
C2641       C  0.63042089  0.35327984  0.25547294    -0.22200
C2642       C  0.61917327  0.36640268  0.23812011    -0.10300
C2643       C  0.60437974  0.38420215  0.24507895     0.28600
C2644       C  0.60053802  0.38820747  0.26861787    -0.22200
C2645       C  0.61137826  0.37470514  0.28593421    -0.10300
C2646       C  0.62663707  0.35733050  0.27898161     0.28600
F2647       F  0.63734607  0.34378051  0.29476327    -0.20800
H2648       H  0.64209725  0.33941082  0.25089888     0.17000
H2649       H  0.58867269  0.40189340  0.27326881     0.17000
F2650       F  0.59328681  0.39742295  0.22928149    -0.20800
C2651       C  0.51563373  0.25434689  0.12846133    -0.22200
C2652       C  0.53458265  0.25174452  0.14318278    -0.10300
C2653       C  0.53506522  0.23373137  0.15922531     0.28600
C2654       C  0.51829253  0.21704247  0.15859754    -0.22200
C2655       C  0.50098664  0.21799654  0.14189995    -0.10300
C2656       C  0.49884342  0.23746853  0.12771764     0.28600
F2657       F  0.48203053  0.23910429  0.11161678    -0.20800
H2658       H  0.51484592  0.26829623  0.11614279     0.17000
H2659       H  0.51987319  0.20243783  0.17007242     0.17000
F2660       F  0.55270154  0.23117418  0.17428070    -0.20800
C2661       C  0.50577644  0.35217042  0.12667280    -0.22200
C2662       C  0.52256919  0.36626366  0.13712256    -0.10300
C2663       C  0.51478335  0.38499558  0.15018616     0.28600
C2664       C  0.49104734  0.38879156  0.15341934    -0.22200
C2665       C  0.47433113  0.37416016  0.14367550    -0.10300
C2666       C  0.48206915  0.35600991  0.12985497     0.28600
F2667       F  0.46688567  0.34127956  0.12037079    -0.20800
H2668       H  0.51096011  0.33758905  0.11629178     0.17000
H2669       H  0.48573537  0.40310904  0.16411018     0.17000
F2670       F  0.52996960  0.39932986  0.16025478    -0.20800
C2671       C  0.65018857  0.21830093  0.02509394    -0.22200
C2672       C  0.63324735  0.21968145  0.00800629    -0.10300
C2673       C  0.61913058  0.23935663  0.00650471     0.28600
C2674       C  0.62020056  0.25605078  0.02362801    -0.22200
C2675       C  0.63523258  0.25313073  0.04229698    -0.10300
C2676       C  0.65116883  0.23482815  0.04222163     0.28600
F2677       F  0.66650818  0.23189002  0.05959331    -0.20800
H2678       H  0.66157877  0.20349634  0.02623198     0.17000
H2679       H  0.60793122  0.27018189  0.02327252     0.17000
F2680       F  0.60279245  0.24138119  0.98996459    -0.20800
C2681       C  0.21787980  0.10187327  0.74548410    -0.22200
C2682       C  0.21814763  0.11879072  0.76259908    -0.10300
C2683       C  0.23729155  0.13314113  0.76460106     0.28600
C2684       C  0.25386558  0.13309244  0.74730980    -0.22200
C2685       C  0.25131343  0.11882286  0.72808982    -0.10300
C2686       C  0.23445804  0.10179044  0.72828190     0.28600
F2687       F  0.23264877  0.08656059  0.71074968    -0.20800
H2688       H  0.20367672  0.09008152  0.74419992     0.17000
H2689       H  0.26718371  0.14591831  0.74778205     0.17000
F2690       F  0.23855507  0.14914273  0.78148194    -0.20800
C2691       C  0.15234788  0.03992641  0.74183493    -0.22200
C2692       C  0.13722879  0.03782128  0.76042231    -0.10300
C2693       C  0.12555030  0.01708029  0.76375080     0.28600
C2694       C  0.12611137  0.00036408  0.74653103    -0.22200
C2695       C  0.13837485  0.00435032  0.72616492    -0.10300
C2696       C  0.15291982  0.02337583  0.72476578     0.28600
F2697       F  0.16592764  0.02728971  0.70586153    -0.20800
H2698       H  0.16222109  0.05539610  0.73936747     0.17000
H2699       H  0.11531036  0.98544069  0.74822273     0.17000
F2700       F  0.11189754  0.01389286  0.78235931    -0.20800
C2701       C  0.09634575  0.22373842  0.74420049    -0.22200
C2702       C  0.11322512  0.22451843  0.76134752    -0.10300
C2703       C  0.12762659  0.24365852  0.76279685     0.28600
C2704       C  0.12731018  0.25995312  0.74520911    -0.22200
C2705       C  0.11281255  0.25704699  0.72618882    -0.10300
C2706       C  0.09615241  0.23985635  0.72661935     0.28600
F2707       F  0.08107048  0.23734886  0.70905310    -0.20800
H2708       H  0.08462174  0.20945528  0.74322107     0.17000
H2709       H  0.13997294  0.27343253  0.74537704     0.17000
F2710       F  0.14376297  0.24525377  0.77953463    -0.20800
C2711       C  0.99526935  0.12562405  0.74444366    -0.22200
C2712       C  0.99809699  0.13856189  0.72431073    -0.10300
C2713       C  0.01538878  0.15518189  0.72336120     0.28600
C2714       C  0.03156098  0.15640283  0.74087829    -0.22200
C2715       C  0.03069004  0.14109164  0.75945369    -0.10300
C2716       C  0.01145677  0.12692290  0.76207695     0.28600
F2717       F  0.00951912  0.11260379  0.78038248    -0.20800
H2718       H  0.98172736  0.11309174  0.74572452     0.17000
H2719       H  0.04585238  0.16800051  0.73891799     0.17000
F2720       F  0.01779421  0.16899421  0.70472071    -0.20800
C2721       C  0.74215176  0.72363601  0.60413377    -0.22200
C2722       C  0.75771319  0.72375517  0.62251582    -0.10300
C2723       C  0.75904207  0.74317908  0.63668901     0.28600
C2724       C  0.74220476  0.76031382  0.63494451    -0.22200
C2725       C  0.72412790  0.75796688  0.61916827    -0.10300
C2726       C  0.72538053  0.74072508  0.60238834     0.28600
F2727       F  0.70900536  0.73895029  0.58590118    -0.20800
H2728       H  0.74148050  0.70912269  0.59252228     0.17000
H2729       H  0.74187359  0.77388260  0.64765921     0.17000
F2730       F  0.77445507  0.74414001  0.65415502    -0.20800
C2731       C  0.74880452  0.51812398  0.62938063    -0.22200
C2732       C  0.74678552  0.53697762  0.64427629    -0.10300
C2733       C  0.72926641  0.53742957  0.66084848     0.28600
C2734       C  0.71246131  0.52075404  0.66064277    -0.22200
C2735       C  0.71275623  0.50363812  0.64377144    -0.10300
C2736       C  0.73177722  0.50147993  0.62901151     0.28600
F2737       F  0.73275354  0.48486411  0.61268960    -0.20800
H2738       H  0.76236491  0.51732819  0.61664579     0.17000
H2739       H  0.69820477  0.52233608  0.67254170     0.17000
F2740       F  0.72721491  0.55498150  0.67600567    -0.20800
C2741       C  0.75605064  0.62862194  0.74943628    -0.22200
C2742       C  0.75395425  0.61512203  0.72964626    -0.10300
C2743       C  0.73642410  0.59877862  0.72845559     0.28600
C2744       C  0.71888131  0.59902331  0.74462598    -0.22200
C2745       C  0.71890917  0.61526377  0.76233840    -0.10300
C2746       C  0.73862324  0.62855805  0.76595920     0.28600
F2747       F  0.73992031  0.64330174  0.78393586    -0.20800
H2748       H  0.76982425  0.64086527  0.75099333     0.17000
H2749       H  0.70430526  0.58790958  0.74207914     0.17000
F2750       F  0.73491420  0.58422689  0.71036874    -0.20800
C2751       C  0.72845515  0.65781700  0.54626319    -0.22200
C2752       C  0.74708454  0.64246741  0.54402150    -0.10300
C2753       C  0.74967298  0.62975073  0.52365753     0.28600
C2754       C  0.73205767  0.62991080  0.50743730    -0.22200
C2755       C  0.71186164  0.64270485  0.51143119    -0.10300
C2756       C  0.71086089  0.65794182  0.53011193     0.28600
F2757       F  0.69212762  0.67155723  0.53383452    -0.20800
H2758       H  0.72651959  0.66835575  0.56148983     0.17000
H2759       H  0.73341718  0.61848240  0.49281761     0.17000
F2760       F  0.76796234  0.61542918  0.52043950    -0.20800
C2761       C  0.75855778  0.24576411  0.13458798    -0.22200
C2762       C  0.75575557  0.22697096  0.11980999    -0.10300
C2763       C  0.73830201  0.22763027  0.10318402     0.28600
C2764       C  0.72137466  0.24459114  0.10434524    -0.22200
C2765       C  0.72179354  0.26090438  0.12202922    -0.10300
C2766       C  0.74154987  0.26281980  0.13574434     0.28600
F2767       F  0.74305350  0.27920758  0.15222308    -0.20800
H2768       H  0.77234508  0.24588841  0.14708576     0.17000
H2769       H  0.70669625  0.24345471  0.09296737     0.17000
F2770       F  0.73604717  0.21045484  0.08761182    -0.20800
C2771       C  0.73785436  0.12939583  0.00076188    -0.22200
C2772       C  0.71780914  0.14274511  0.00336797    -0.10300
C2773       C  0.71644673  0.15887417  0.02127597     0.28600
C2774       C  0.73307188  0.15880291  0.03840700    -0.22200
C2775       C  0.75126881  0.14282605  0.03777607    -0.10300
C2776       C  0.75463661  0.12941102  0.01792160     0.28600
F2777       F  0.77269867  0.11455982  0.01616850    -0.20800
H2778       H  0.73947217  0.11725595  0.98675067     0.17000
H2779       H  0.73061047  0.16992752  0.05313776     0.17000
F2780       F  0.69794693  0.17313503  0.02348257    -0.20800
C2781       C  0.73140139  0.00348486  0.12651748    -0.22200
C2782       C  0.71277296  0.00579499  0.14167825    -0.10300
C2783       C  0.71257326  0.02354460  0.15794770     0.28600
C2784       C  0.72932401  0.04032046  0.15716851    -0.22200
C2785       C  0.74638984  0.03956241  0.14018779    -0.10300
C2786       C  0.74814925  0.02036375  0.12563751     0.28600
F2787       F  0.76452130  0.01901780  0.10905683    -0.20800
H2788       H  0.73194013  0.98977413  0.11395761     0.17000
H2789       H  0.72804773  0.05472376  0.16889113     0.17000
F2790       F  0.69532894  0.02560316  0.17351946    -0.20800
C2791       C  0.10881799  0.51004537  0.36210166    -0.22200
C2792       C  0.12203341  0.52700939  0.37339079    -0.10300
C2793       C  0.13818229  0.51964154  0.38965500     0.28600
C2794       C  0.14175856  0.49604413  0.39359173    -0.22200
C2795       C  0.12938500  0.47899312  0.38148496    -0.10300
C2796       C  0.11238189  0.48639939  0.36605426     0.28600
F2797       F  0.09979229  0.47094794  0.35419251    -0.20800
H2798       H  0.09593920  0.51504911  0.34957646     0.17000
H2799       H  0.15488589  0.49114484  0.40589172     0.17000
F2800       F  0.15123507  0.53508323  0.40101384    -0.20800
C2801       C  0.22954877  0.61258770  0.39042570    -0.22200
C2802       C  0.22294926  0.62636269  0.37184642    -0.10300
C2803       C  0.24057431  0.63729505  0.35896911     0.28600
C2804       C  0.26392475  0.63365013  0.36404651    -0.22200
C2805       C  0.27051980  0.61910390  0.38200647    -0.10300
C2806       C  0.25292784  0.60898375  0.39551235     0.28600
F2807       F  0.25820674  0.59518051  0.41361441    -0.20800
H2808       H  0.21664488  0.60416885  0.40074438     0.17000
H2809       H  0.27684598  0.64164648  0.35340710     0.17000
F2810       F  0.23546122  0.65131525  0.34098098    -0.20800
C2811       C  0.23477860  0.62675726  0.26266548    -0.22200
C2812       C  0.21507534  0.61351244  0.25930161    -0.10300
C2813       C  0.21454172  0.59770838  0.24111993     0.28600
C2814       C  0.23151973  0.59814344  0.22437549    -0.22200
C2815       C  0.24911778  0.61430912  0.22561032    -0.10300
C2816       C  0.25186883  0.62718471  0.24583297     0.28600
F2817       F  0.26951111  0.64202279  0.24821579    -0.20800
H2818       H  0.23585032  0.63854718  0.27699636     0.17000
H2819       H  0.22963553  0.58733686  0.20936443     0.17000
F2820       F  0.19643537  0.58357412  0.23815410    -0.20800
C2821       C  0.15152355  0.51431036  0.22937472    -0.22200
C2822       C  0.13333900  0.49881814  0.22816599    -0.10300
C2823       C  0.11666384  0.49852812  0.24564239     0.28600
C2824       C  0.11652659  0.51568716  0.26223706    -0.22200
C2825       C  0.13280815  0.53318986  0.26128259    -0.10300
C2826       C  0.15129554  0.53148394  0.24592684     0.28600
F2827       F  0.16800752  0.54750048  0.24569542    -0.20800
H2828       H  0.16480727  0.51435019  0.21632256     0.17000
H2829       H  0.10226158  0.51664804  0.27417866     0.17000
F2830       F  0.09883427  0.48371960  0.24499698    -0.20800
C2831       C  0.99096989  0.62438977  0.24617878    -0.22200
C2832       C  0.99231772  0.63978350  0.22772293    -0.10300
C2833       C  0.00869023  0.65726889  0.22808759     0.28600
C2834       C  0.02600699  0.65679000  0.24449377    -0.22200
C2835       C  0.02677685  0.63914162  0.26082994    -0.10300
C2836       C  0.00816963  0.62405378  0.26282209     0.28600
F2837       F  0.00803142  0.60718741  0.27894718    -0.20800
H2838       H  0.97815804  0.61105075  0.24639400     0.17000
H2839       H  0.03982931  0.66903031  0.24323047     0.17000
F2840       F  0.00931648  0.67337752  0.21125664    -0.20800
C2841       C  0.09261750  0.72163096  0.24280766    -0.22200
C2842       C  0.10996832  0.72158633  0.25948132    -0.10300
C2843       C  0.12432767  0.74070933  0.26161781     0.28600
C2844       C  0.12342714  0.75798484  0.24507672    -0.22200
C2845       C  0.10841550  0.75609616  0.22636222    -0.10300
C2846       C  0.09177193  0.73883341  0.22627400     0.28600
F2847       F  0.07621425  0.73725640  0.20898065    -0.20800
H2848       H  0.08097032  0.70732640  0.24135807     0.17000
H2849       H  0.13613959  0.77140821  0.24561438     0.17000
F2850       F  0.14106137  0.74141098  0.27783818    -0.20800
C2851       C  0.11987433  0.74208303  0.00142126    -0.22200
C2852       C  0.13534801  0.72355775  0.00408235    -0.10300
C2853       C  0.15044489  0.72326680  0.02290242     0.28600
C2854       C  0.14761205  0.73922765  0.04044728    -0.22200
C2855       C  0.12996399  0.75582455  0.03933321    -0.10300
C2856       C  0.11714328  0.75822340  0.01900024     0.28600
F2857       F  0.10044686  0.77457352  0.01703153    -0.20800
H2858       H  0.10837719  0.74288926  0.98680349     0.17000
H2859       H  0.15823852  0.73758488  0.05565549     0.17000
F2860       F  0.16659678  0.70640881  0.02535989    -0.20800
C2861       C  0.23189513  0.75529882  0.13000791    -0.22200
C2862       C  0.21106459  0.75113741  0.11870331    -0.10300
C2863       C  0.20911343  0.73177261  0.10449958     0.28600
C2864       C  0.22647101  0.71524778  0.10436019    -0.22200
C2865       C  0.24583066  0.71774118  0.11842812    -0.10300
C2866       C  0.24931619  0.73864050  0.12990378     0.28600
F2867       F  0.26840425  0.74210337  0.14276967    -0.20800
H2868       H  0.23394453  0.77044311  0.14056734     0.17000
H2869       H  0.22377864  0.69958041  0.09475530     0.17000
F2870       F  0.18962491  0.72767224  0.09242825    -0.20800
C2871       C  0.02705615  0.74105449  0.16270829    -0.22200
C2872       C  0.02562691  0.75860791  0.14620872    -0.10300
C2873       C  0.00606819  0.76034724  0.13216387     0.28600
C2874       C  0.99007642  0.74266941  0.13224965    -0.22200
C2875       C  0.99363476  0.72326323  0.14622663    -0.10300
C2876       C  0.01123909  0.72338291  0.16268264     0.28600
F2877       F  0.01447307  0.70545520  0.17727901    -0.20800
H2878       H  0.04167175  0.73979502  0.17418777     0.17000
H2879       H  0.97626365  0.74314465  0.11978233     0.17000
F2880       F  0.00377126  0.77752127  0.11652011    -0.20800
C2881       C  0.60419763  0.23490228  0.39094281    -0.22200
C2882       C  0.62088081  0.22856730  0.37476044    -0.10300
C2883       C  0.63276880  0.24650873  0.36330830     0.28600
C2884       C  0.62750756  0.26981692  0.36746209    -0.22200
C2885       C  0.61028475  0.27613941  0.38307222    -0.10300
C2886       C  0.59890204  0.25822210  0.39505846     0.28600
F2887       F  0.58233833  0.26307867  0.41079574    -0.20800
H2888       H  0.59481177  0.22178939  0.40007597     0.17000
H2889       H  0.63663825  0.28292094  0.35805479     0.17000
F2890       F  0.64950580  0.24168622  0.34773805    -0.20800
C2891       C  0.48360819  0.11951397  0.37065329    -0.22200
C2892       C  0.47662088  0.13789070  0.38451933    -0.10300
C2893       C  0.49402230  0.15072744  0.39577200     0.28600
C2894       C  0.51748789  0.14614559  0.39200328    -0.22200
C2895       C  0.52444089  0.12862096  0.37711998    -0.10300
C2896       C  0.50711180  0.11482348  0.36704220     0.28600
F2897       F  0.51277531  0.09685915  0.35322997    -0.20800
H2898       H  0.47090788  0.10912196  0.36208924     0.17000
H2899       H  0.53018946  0.15688708  0.40012157     0.17000
F2900       F  0.48854301  0.16823675  0.41021741    -0.20800
C2901       C  0.62861676  0.25607770  0.24834744    -0.22200
C2902       C  0.61491320  0.25352522  0.22872181    -0.10300
C2903       C  0.59861423  0.23596274  0.22797715     0.28600
C2904       C  0.59857764  0.21916483  0.24492942    -0.22200
C2905       C  0.61471264  0.21979682  0.26275224    -0.10300
C2906       C  0.62851921  0.23927064  0.26543405     0.28600
F2907       F  0.64370323  0.24086911  0.28304745    -0.20800
H2908       H  0.64094613  0.26981642  0.24945914     0.17000
H2909       H  0.58724264  0.20466123  0.24303376     0.17000
F2910       F  0.58408681  0.23388314  0.20990377    -0.20800
C2911       C  0.73529272  0.10174586  0.22593555    -0.22200
C2912       C  0.75157356  0.11927548  0.22605998    -0.10300
C2913       C  0.75392171  0.13307440  0.24571856     0.28600
C2914       C  0.73789129  0.13153293  0.26345322    -0.22200
C2915       C  0.71957845  0.11620954  0.26169505    -0.10300
C2916       C  0.71946915  0.10002720  0.24377905     0.28600
F2917       F  0.70289161  0.08386846  0.24246685    -0.20800
H2918       H  0.73375878  0.09043120  0.21126042     0.17000
H2919       H  0.73853159  0.14386847  0.27734641     0.17000
F2920       F  0.76994392  0.14979186  0.24669103    -0.20800
C2921       C  0.49621740  0.12626727  0.24746504    -0.22200
C2922       C  0.50006180  0.13872238  0.22716801    -0.10300
C2923       C  0.51872681  0.15374921  0.22599122     0.28600
C2924       C  0.53512892  0.15350585  0.24329603    -0.22200
C2925       C  0.53319107  0.13827186  0.26185640    -0.10300
C2926       C  0.51275414  0.12601296  0.26486040     0.28600
F2927       F  0.50977422  0.11203994  0.28327972    -0.20800
H2928       H  0.48156876  0.11506954  0.24897376     0.17000
H2929       H  0.55036294  0.16379945  0.24109960     0.17000
F2930       F  0.52231601  0.16711207  0.20721898    -0.20800
C2931       C  0.61509968  0.00023780  0.24418076    -0.22200
C2932       C  0.63032597  0.00186413  0.22560689    -0.10300
C2933       C  0.64871218  0.01717323  0.22661176     0.28600
C2934       C  0.65025643  0.03245819  0.24484007    -0.22200
C2935       C  0.63328504  0.03283530  0.26193717    -0.10300
C2936       C  0.61637723  0.01580287  0.26224694     0.28600
F2937       F  0.59945507  0.01589992  0.27830620    -0.20800
H2938       H  0.60086607  0.98842622  0.24368378     0.17000
H2939       H  0.66359181  0.04528887  0.24454814     0.17000
F2940       F  0.66418024  0.01848528  0.20923216    -0.20800
C2941       C  0.14269939  0.23537016  0.37628717    -0.22200
C2942       C  0.12650694  0.22875070  0.39266872    -0.10300
C2943       C  0.11370654  0.24642866  0.40402428     0.28600
C2944       C  0.11773826  0.26976738  0.39974225    -0.22200
C2945       C  0.13453914  0.27641096  0.38407361    -0.10300
C2946       C  0.14671150  0.25879632  0.37198397     0.28600
F2947       F  0.16290589  0.26405953  0.35610160    -0.20800
H2948       H  0.15271688  0.22245853  0.36723623     0.17000
H2949       H  0.10805250  0.28265368  0.40917926     0.17000
F2950       F  0.09732558  0.24135916  0.41978089    -0.20800
C2951       C  0.25691745  0.14564653  0.37560881    -0.22200
C2952       C  0.27402450  0.13511864  0.38965253    -0.10300
C2953       C  0.26674082  0.12017363  0.40697329     0.28600
C2954       C  0.24308604  0.11670086  0.41058610    -0.22200
C2955       C  0.22598670  0.12800244  0.39709416    -0.10300
C2956       C  0.23332812  0.14223457  0.37924947     0.28600
F2957       F  0.21781974  0.15349148  0.36581017    -0.20800
H2958       H  0.26176067  0.15720898  0.36189985     0.17000
H2959       H  0.23816879  0.10542398  0.42450516     0.17000
F2960       F  0.28226580  0.10974140  0.42103698    -0.20800
C2961       C  0.12000355  0.24389423  0.50138497    -0.22200
C2962       C  0.13452469  0.22467511  0.50436680    -0.10300
C2963       C  0.15101063  0.22481925  0.52194636     0.28600
C2964       C  0.15017677  0.24182297  0.53863139    -0.22200
C2965       C  0.13298310  0.25886812  0.53790189    -0.10300
C2966       C  0.11923889  0.26109393  0.51812854     0.28600
F2967       F  0.10336941  0.27826025  0.51619815    -0.20800
H2968       H  0.10762447  0.24445407  0.48749444     0.17000
H2969       H  0.16162715  0.24037451  0.55325950     0.17000
F2970       F  0.16639156  0.20731004  0.52437148    -0.20800
C2971       C  0.23431779  0.15873382  0.54005467    -0.22200
C2972       C  0.25171264  0.14189623  0.53986342    -0.10300
C2973       C  0.25375703  0.12703031  0.52093816     0.28600
C2974       C  0.23626929  0.12656328  0.50454752    -0.22200
C2975       C  0.21691439  0.14097279  0.50698987    -0.10300
C2976       C  0.21699578  0.15835100  0.52366012     0.28600
F2977       F  0.19929538  0.17359559  0.52544026    -0.20800
H2978       H  0.23294972  0.17087881  0.55409080     0.17000
H2979       H  0.23681515  0.11343425  0.49138372     0.17000
F2980       F  0.27099800  0.11116961  0.51971018    -0.20800
C2981       C  0.00901595  0.13144329  0.50139612    -0.22200
C2982       C  0.02879361  0.11771457  0.50407371    -0.10300
C2983       C  0.02901090  0.10012262  0.52055758     0.28600
C2984       C  0.01163020  0.09906345  0.53682172    -0.22200
C2985       C  0.99389229  0.11549663  0.53667709    -0.10300
C2986       C  0.99141140  0.13028270  0.51764998     0.28600
F2987       F  0.97360243  0.14548086  0.51622555    -0.20800
H2988       H  0.00822947  0.14465184  0.48828487     0.17000
H2989       H  0.01331634  0.08688430  0.55083673     0.17000
F2990       F  0.04716245  0.08548477  0.52243677    -0.20800
C2991       C  0.09468540  0.01888838  0.54137716    -0.22200
C2992       C  0.11186428  0.00185858  0.53995860    -0.10300
C2993       C  0.12507060  0.99985380  0.51985138     0.28600
C2994       C  0.12369459  0.01707295  0.50326903    -0.22200
C2995       C  0.10946547  0.03637036  0.50691880    -0.10300
C2996       C  0.09353685  0.03619775  0.52497778     0.28600
F2997       F  0.07857605  0.05389035  0.52817409    -0.20800
H2998       H  0.08373500  0.02019523  0.55638587     0.17000
H2999       H  0.13568098  0.01653988  0.48902905     0.17000
F3000       F  0.14132080  0.98310612  0.51753186    -0.20800
C3001       C  0.85147345  0.76755786  0.62668405    -0.22200
C3002       C  0.87373638  0.77428389  0.62098970    -0.10300
C3003       C  0.89049510  0.75678466  0.61705833     0.28600
C3004       C  0.88514656  0.73331754  0.61931629    -0.22200
C3005       C  0.86290817  0.72660425  0.62530354    -0.10300
C3006       C  0.84601553  0.74415721  0.62855529     0.28600
F3007       F  0.82386696  0.73874694  0.63318780    -0.20800
H3008       H  0.83802907  0.78039989  0.62884491     0.17000
H3009       H  0.89852526  0.72046443  0.61687929     0.17000
F3010       F  0.91229705  0.76238951  0.61119672    -0.20800
C3011       C  0.76014214  0.88545871  0.60973857    -0.22200
C3012       C  0.77738111  0.87210350  0.62094119    -0.10300
C3013       C  0.77028108  0.85548593  0.63673661     0.28600
C3014       C  0.74670701  0.85219234  0.64083259    -0.22200
C3015       C  0.72942878  0.86530518  0.62934952    -0.10300
C3016       C  0.73656785  0.88214858  0.61381155     0.28600
F3017       F  0.72089289  0.89496993  0.60205711    -0.20800
H3018       H  0.76488244  0.89846626  0.59735922     0.17000
H3019       H  0.74200070  0.83890845  0.65292536     0.17000
F3020       F  0.78595209  0.84186635  0.64759935    -0.20800
C3021       C  0.98647120  0.89375116  0.64108771    -0.22200
C3022       C  0.98020541  0.87980331  0.62262591    -0.10300
C3023       C  0.99825068  0.86979350  0.60921124     0.28600
C3024       C  0.02149037  0.87420859  0.61381043    -0.22200
C3025       C  0.02769427  0.88878278  0.63172042    -0.10300
C3026       C  0.00979304  0.89821296  0.64562408     0.28600
F3027       F  0.01471494  0.91206794  0.66365528    -0.20800
H3028       H  0.97332873  0.90153379  0.65181953     0.17000
H3029       H  0.03461199  0.86679224  0.60279444     0.17000
F3030       F  0.99365988  0.85595592  0.59107421    -0.20800
C3031       C  0.86716378  0.99418530  0.60827904    -0.22200
C3032       C  0.87807031  0.97708557  0.62209028    -0.10300
C3033       C  0.89133090  0.98456665  0.64066231     0.28600
C3034       C  0.89438186  0.00825551  0.64449552    -0.22200
C3035       C  0.88419884  0.02530609  0.63013156    -0.10300
C3036       C  0.87009703  0.01785303  0.61219966     0.28600
F3037       F  0.85994618  0.03327789  0.59782307    -0.20800
H3038       H  0.85655581  0.98928113  0.59386040     0.17000
H3039       H  0.90524289  0.01326236  0.65869081     0.17000
F3040       F  0.90177580  0.96913155  0.65480985    -0.20800
C3041       C  0.84946138  0.13561746  0.25204147    -0.22200
C3042       C  0.86195813  0.12405049  0.23447026    -0.10300
C3043       C  0.87888794  0.10812464  0.24111426     0.28600
C3044       C  0.88281079  0.10365409  0.26454060    -0.22200
C3045       C  0.87002179  0.11488391  0.28210375    -0.10300
C3046       C  0.85336286  0.13111607  0.27548713     0.28600
F3047       F  0.84039300  0.14213677  0.29151686    -0.20800
H3048       H  0.83620453  0.14807430  0.24766801     0.17000
H3049       H  0.89586903  0.09098038  0.26888714     0.17000
F3050       F  0.89125898  0.09644378  0.22508491    -0.20800
C3051       C  0.76746261  0.12695865  0.36496069    -0.22200
C3052       C  0.77400801  0.10861534  0.37902756    -0.10300
C3053       C  0.75644266  0.09567407  0.38985710     0.28600
C3054       C  0.73310146  0.10135209  0.38687042    -0.22200
C3055       C  0.72657938  0.11969947  0.37274505    -0.10300
C3056       C  0.74418669  0.13240633  0.36169067     0.28600
F3057       F  0.73908909  0.15025182  0.34746818    -0.20800
H3058       H  0.78037249  0.13704615  0.35630046     0.17000
H3059       H  0.72014278  0.09103814  0.39517295     0.17000
F3060       F  0.76163861  0.07728160  0.40331888    -0.20800
C3061       C  0.99291495  0.10829375  0.37179527    -0.22200
C3062       C  0.97542304  0.11838027  0.38564961    -0.10300
C3063       C  0.98213236  0.13272478  0.40362633     0.28600
C3064       C  0.00561535  0.13614800  0.40800990    -0.22200
C3065       C  0.02314150  0.12540395  0.39464368    -0.10300
C3066       C  0.01638583  0.11166508  0.37620439     0.28600
F3067       F  0.03232405  0.10105663  0.36276794    -0.20800
H3068       H  0.98845155  0.09716643  0.35762935     0.17000
H3069       H  0.01003282  0.14701769  0.42238560     0.17000
F3070       F  0.96616803  0.14264118  0.41755306    -0.20800
C3071       C  0.89521882  0.12828146  0.49005352    -0.22200
C3072       C  0.87538394  0.11703244  0.48321365    -0.10300
C3073       C  0.85977249  0.10977732  0.50044704     0.28600
C3074       C  0.86442441  0.11310110  0.52395622    -0.22200
C3075       C  0.88474424  0.12365894  0.53089226    -0.10300
C3076       C  0.90001368  0.13143788  0.51342402     0.28600
F3077       F  0.92022833  0.14154723  0.51869918    -0.20800
H3078       H  0.90767791  0.13360355  0.47734010     0.17000
H3079       H  0.85226105  0.10720378  0.53668271     0.17000
F3080       F  0.84001576  0.09911201  0.49457126    -0.20800
C3081       C  0.88008678  0.00602753  0.49695845    -0.22200
C3082       C  0.89373687  0.00278506  0.47729485    -0.10300
C3083       C  0.90998646  0.98476120  0.47690525     0.28600
C3084       C  0.90941679  0.96787266  0.49380189    -0.22200
C3085       C  0.89288154  0.96899136  0.51131220    -0.10300
C3086       C  0.87973965  0.98921763  0.51409396     0.28600
F3087       F  0.86473972  0.99161808  0.53181894    -0.20800
H3088       H  0.86802302  0.02029684  0.49800858     0.17000
H3089       H  0.92048775  0.95289165  0.49196229     0.17000
F3090       F  0.92482661  0.98218194  0.45906353    -0.20800
C3091       C  0.13090506  0.85874713  0.27566224    -0.22200
C3092       C  0.11556237  0.87592075  0.28267970    -0.10300
C3093       C  0.10480646  0.88970921  0.26544150     0.28600
C3094       C  0.10843267  0.88542322  0.24193349    -0.22200
C3095       C  0.12292474  0.86745655  0.23491132    -0.10300
C3096       C  0.13461625  0.85452566  0.25221506     0.28600
F3097       F  0.14945737  0.83725588  0.24665633    -0.20800
H3098       H  0.13946252  0.84799933  0.28831346     0.17000
H3099       H  0.09943130  0.89579049  0.22927301     0.17000
F3100       F  0.09037006  0.90727002  0.27119333    -0.20800
C3101       C  0.10572870  0.75958654  0.39590461    -0.22200
C3102       C  0.11547911  0.77668433  0.38165472    -0.10300
C3103       C  0.12899909  0.76954702  0.36306510     0.28600
C3104       C  0.13182690  0.74603212  0.35837023    -0.22200
C3105       C  0.12131459  0.72888793  0.37204446    -0.10300
C3106       C  0.10860734  0.73602190  0.39124066     0.28600
F3107       F  0.09850419  0.72038997  0.40515113    -0.20800
H3108       H  0.09531015  0.76447224  0.41056478     0.17000
H3109       H  0.14197866  0.74131158  0.34347874     0.17000
F3110       F  0.13858310  0.78519441  0.34878572    -0.20800
C3111       C  0.13211729  0.98487008  0.40425636    -0.22200
C3112       C  0.11871802  0.97830947  0.38551351    -0.10300
C3113       C  0.10923852  0.99597508  0.37137484     0.28600
C3114       C  0.11212435  0.01935926  0.37661256    -0.22200
C3115       C  0.12458800  0.02597119  0.39599088    -0.10300
C3116       C  0.13505303  0.00825559  0.40949959     0.28600
F3117       F  0.14783180  0.01332261  0.42829089    -0.20800
H3118       H  0.13958529  0.97191011  0.41544377     0.17000
H3119       H  0.10416162  0.03227986  0.36572570     0.17000
F3120       F  0.09668824  0.99071853  0.35248842    -0.20800
C3121       C  0.01035283  0.99276495  0.37981645    -0.22200
C3122       C  0.00891355  0.97513595  0.39618797    -0.10300
C3123       C  0.99270497  0.97673714  0.41395340     0.28600
C3124       C  0.97576439  0.99367307  0.41308516    -0.22200
C3125       C  0.97489302  0.00892101  0.39447242    -0.10300
C3126       C  0.99325207  0.00966176  0.37882490     0.28600
F3127       F  0.99300279  0.02445645  0.36077047    -0.20800
H3128       H  0.02300210  0.99195731  0.36617029     0.17000
H3129       H  0.96200064  0.99334350  0.42562482     0.17000
F3130       F  0.99167888  0.96049279  0.43064694    -0.20800
C3131       C  0.13097666  0.90275473  0.49054260    -0.22200
C3132       C  0.12147397  0.88191269  0.48392741    -0.10300
C3133       C  0.11530819  0.86605519  0.50136434     0.28600
C3134       C  0.11780635  0.87135983  0.52478051    -0.22200
C3135       C  0.12655851  0.89255212  0.53149534    -0.10300
C3136       C  0.13344326  0.90813293  0.51391498     0.28600
F3137       F  0.14195778  0.92910333  0.51910406    -0.20800
H3138       H  0.13540511  0.91541011  0.47767082     0.17000
H3139       H  0.11272448  0.85894359  0.53762618     0.17000
F3140       F  0.10636935  0.84538284  0.49576096    -0.20800
C3141       C  0.97229253  0.90780349  0.49717026    -0.22200
C3142       C  0.97374665  0.89076443  0.51415461    -0.10300
C3143       C  0.99432480  0.87823534  0.51698864     0.28600
C3144       C  0.01155247  0.87996111  0.50043926    -0.22200
C3145       C  0.00816121  0.89408602  0.48115359    -0.10300
C3146       C  0.98942929  0.90952946  0.48070007     0.28600
F3147       F  0.98626744  0.92437233  0.46294300    -0.20800
H3148       H  0.95686871  0.91824540  0.49524590     0.17000
H3149       H  0.02619643  0.86834331  0.50139346     0.17000
F3150       F  0.99664942  0.86231563  0.53390585    -0.20800
C3151       C  0.77351702  0.85055268  0.46862154    -0.22200
C3152       C  0.75415811  0.86487902  0.47094389    -0.10300
C3153       C  0.75064713  0.87698425  0.49158426     0.28600
C3154       C  0.76786051  0.87701354  0.50829071    -0.22200
C3155       C  0.78852778  0.86495784  0.50450879    -0.10300
C3156       C  0.79064021  0.85057812  0.48519636     0.28600
F3157       F  0.81000343  0.83792564  0.48130061    -0.20800
H3158       H  0.77628919  0.84059462  0.45313397     0.17000
H3159       H  0.76572608  0.88784547  0.52327399     0.17000
F3160       F  0.73163377  0.89032076  0.49481017    -0.20800
C3161       C  0.62075533  0.86442915  0.49164992    -0.22200
C3162       C  0.63920586  0.87775099  0.48460202    -0.10300
C3163       C  0.65249667  0.88881347  0.50182797     0.28600
C3164       C  0.64795495  0.88560734  0.52534708    -0.22200
C3165       C  0.63011839  0.87140627  0.53236984    -0.10300
C3166       C  0.61617341  0.86128977  0.51507870     0.28600
F3167       F  0.59818399  0.84774251  0.52067008    -0.20800
H3168       H  0.61015729  0.85592659  0.47903318     0.17000
H3169       H  0.65893366  0.89354430  0.53800728     0.17000
F3170       F  0.67034846  0.90247705  0.49611315    -0.20800
C3171       C  0.64727309  0.75894208  0.37567724    -0.22200
C3172       C  0.63367882  0.77648896  0.38612347    -0.10300
C3173       C  0.61470304  0.76977773  0.39917814     0.28600
C3174       C  0.61010155  0.74628458  0.40228606    -0.22200
C3175       C  0.62421486  0.72876641  0.39249947    -0.10300
C3176       C  0.64264270  0.73549834  0.37873807     0.28600
F3177       F  0.65676169  0.71955287  0.36900870    -0.20800
H3178       H  0.66202323  0.76328297  0.36527376     0.17000
H3179       H  0.59555096  0.74179803  0.41291272     0.17000
F3180       F  0.60085309  0.78574737  0.40925195    -0.20800
C3181       C  0.64936214  0.99541468  0.39575716    -0.22200
C3182       C  0.63551654  0.97867416  0.38490362    -0.10300
C3183       C  0.61654134  0.98632201  0.37217555     0.28600
C3184       C  0.61239422  0.00996875  0.36934308    -0.22200
C3185       C  0.62703439  0.02668537  0.37902197    -0.10300
C3186       C  0.64523460  0.01908412  0.39288205     0.28600
F3187       F  0.65980972  0.03433215  0.40251466    -0.20800
H3188       H  0.66405673  0.99022960  0.40601265     0.17000
H3189       H  0.59797660  0.01520657  0.35872271     0.17000
F3190       F  0.60257423  0.97109499  0.36166659    -0.20800
C3191       C  0.76964655  0.96603449  0.35399261    -0.22200
C3192       C  0.75128207  0.96756819  0.36954525    -0.10300
C3193       C  0.74933481  0.98676689  0.38406467     0.28600
C3194       C  0.76728573  0.00232657  0.38522977    -0.22200
C3195       C  0.78718877  0.99877873  0.37203132    -0.10300
C3196       C  0.78761116  0.98147979  0.35525995     0.28600
F3197       F  0.80607698  0.97838265  0.34130643    -0.20800
H3198       H  0.77109696  0.95172879  0.34217027     0.17000
H3199       H  0.76642188  0.01592542  0.39789454     0.17000
F3200       F  0.73142026  0.98923698  0.39883677    -0.20800
C3201       C  0.64174941  0.86751080  0.26516156    -0.22200
C3202       C  0.63064020  0.88061127  0.28257862    -0.10300
C3203       C  0.61484090  0.89759283  0.27569599     0.28600
C3204       C  0.61133397  0.90204602  0.25213207    -0.22200
C3205       C  0.62334906  0.88964619  0.23477276    -0.10300
C3206       C  0.63821859  0.87190828  0.24168835     0.28600
F3207       F  0.64993629  0.85927009  0.22589437    -0.20800
H3208       H  0.65385828  0.85397908  0.26966464     0.17000
H3209       H  0.59941950  0.91570642  0.24750454     0.17000
F3210       F  0.60342053  0.91040409  0.29156812    -0.20800
C3211       C  0.75326183  0.64630594  0.37187800    -0.22200
C3212       C  0.77087372  0.63589553  0.38531497    -0.10300
C3213       C  0.76423206  0.62113839  0.40309254     0.28600
C3214       C  0.74076139  0.61800035  0.40799508    -0.22200
C3215       C  0.72313766  0.62925398  0.39523048    -0.10300
C3216       C  0.72978560  0.64299900  0.37664009     0.28600
F3217       F  0.71373105  0.65388355  0.36354123    -0.20800
H3218       H  0.75766346  0.65763153  0.35781716     0.17000
H3219       H  0.73641817  0.60698337  0.42231403     0.17000
F3220       F  0.78030760  0.61057015  0.41642239    -0.20800
C3221       C  0.77665447  0.76500771  0.41413270    -0.22200
C3222       C  0.77645809  0.74707246  0.39810257    -0.10300
C3223       C  0.75712464  0.74430156  0.38388882     0.28600
C3224       C  0.74052442  0.76172426  0.38271988    -0.22200
C3225       C  0.74318689  0.78170601  0.39577610    -0.10300
C3226       C  0.76001820  0.78229772  0.41305374     0.28600
F3227       F  0.76189395  0.80073125  0.42717299    -0.20800
H3228       H  0.79093447  0.76692984  0.42588834     0.17000
H3229       H  0.72720674  0.76070665  0.36977380     0.17000
F3230       F  0.75571111  0.72642460  0.36903389    -0.20800
C3231       C  0.88037746  0.74430859  0.49782395    -0.22200
C3232       C  0.86351704  0.74615484  0.48068596    -0.10300
C3233       C  0.84668313  0.76355987  0.48208642     0.28600
C3234       C  0.84907749  0.78107863  0.49807315    -0.22200
C3235       C  0.86802870  0.78110608  0.51291183    -0.10300
C3236       C  0.88271437  0.76179434  0.51394201     0.28600
F3237       F  0.90100667  0.76114963  0.52840728    -0.20800
H3238       H  0.89331194  0.73078665  0.49720765     0.17000
H3239       H  0.83719189  0.79554077  0.49758702     0.17000
F3240       F  0.82931473  0.76489429  0.46654528    -0.20800
C3241       C  0.85531438  0.61789025  0.49081107    -0.22200
C3242       C  0.86903288  0.63621780  0.48392221    -0.10300
C3243       C  0.87951157  0.64963033  0.50146727     0.28600
C3244       C  0.87593699  0.64504490  0.52484836    -0.22200
C3245       C  0.86167887  0.62725272  0.53170683    -0.10300
C3246       C  0.85161569  0.61343586  0.51433157     0.28600
F3247       F  0.83792389  0.59559207  0.52000182    -0.20800
H3248       H  0.84714834  0.60722371  0.47803834     0.17000
H3249       H  0.88368376  0.65605010  0.53760497     0.17000
F3250       F  0.89298582  0.66778639  0.49628599    -0.20800
C3251       C  0.98978922  0.64927701  0.39161378    -0.22200
C3252       C  0.97291634  0.63593205  0.38034944    -0.10300
C3253       C  0.98045819  0.61785242  0.36631687     0.28600
C3254       C  0.00415016  0.61424029  0.36272671    -0.22200
C3255       C  0.02090715  0.62845768  0.37307252    -0.10300
C3256       C  0.01337304  0.64566895  0.38803583     0.28600
F3257       F  0.02862804  0.65983289  0.39823516    -0.20800
H3258       H  0.98478962  0.66324354  0.40288371     0.17000
H3259       H  0.00937220  0.60054387  0.35121465     0.17000
F3260       F  0.96512078  0.60418202  0.35554809    -0.20800
C3261       C  0.98277878  0.75156796  0.39573477    -0.22200
C3262       C  0.96430584  0.75412699  0.38034659    -0.10300
C3263       C  0.96444640  0.77225287  0.36442470     0.28600
C3264       C  0.98135654  0.78887785  0.36557030    -0.22200
C3265       C  0.99844537  0.78774079  0.38253019    -0.10300
C3266       C  0.99981645  0.76831614  0.39689326     0.28600
F3267       F  0.01633231  0.76644734  0.41327536    -0.20800
H3268       H  0.98312710  0.73757226  0.40801166     0.17000
H3269       H  0.98032078  0.80337725  0.35391021     0.17000
F3270       F  0.94752302  0.77465748  0.34854692    -0.20800
C3271       C  0.89199422  0.61727254  0.25035845    -0.22200
C3272       C  0.88133492  0.63102110  0.23314912    -0.10300
C3273       C  0.86626122  0.64852813  0.24024923     0.28600
C3274       C  0.86266573  0.65257273  0.26382956    -0.22200
C3275       C  0.87394560  0.63931271  0.28105510    -0.10300
C3276       C  0.88839018  0.62129619  0.27391890     0.28600
F3277       F  0.89957541  0.60799997  0.28958601    -0.20800
H3278       H  0.90369478  0.60348235  0.24559846     0.17000
H3279       H  0.85124771  0.66659593  0.26857834     0.17000
F3280       F  0.85575710  0.66233990  0.22455445    -0.20800
C3281       C  0.88426166  0.99711839  0.15267521    -0.22200
C3282       C  0.87057539  0.98004207  0.14221242    -0.10300
C3283       C  0.85298134  0.98725150  0.12740443     0.28600
C3284       C  0.84863650  0.01084369  0.12408557    -0.22200
C3285       C  0.86171042  0.02792578  0.13534873    -0.10300
C3286       C  0.87993150  0.02067763  0.14936826     0.28600
F3287       F  0.89310512  0.03620825  0.16046266    -0.20800
H3288       H  0.89815618  0.99224225  0.16412391     0.17000
H3289       H  0.83450284  0.01570492  0.11293368     0.17000
F3290       F  0.83930243  0.97167485  0.11701992    -0.20800
C3291       C  0.01561184  0.87681868  0.16364543    -0.22200
C3292       C  0.02300727  0.87307782  0.14108179    -0.10300
C3293       C  0.00617240  0.87126188  0.12362491     0.28600
C3294       C  0.98257409  0.87263641  0.12869918    -0.22200
C3295       C  0.97509718  0.87594241  0.15130757    -0.10300
C3296       C  0.99200931  0.87820800  0.16876836     0.28600
F3297       F  0.98577153  0.88101379  0.19108943    -0.20800
H3298       H  0.02802403  0.87744211  0.17749056     0.17000
H3299       H  0.97017855  0.87134125  0.11490230     0.17000
F3300       F  0.01263466  0.86768307  0.10149283    -0.20800
C3301       C  0.84361471  0.99301524  0.28992613    -0.22200
C3302       C  0.86192035  0.00836760  0.28942239    -0.10300
C3303       C  0.87489555  0.01085739  0.26922052     0.28600
C3304       C  0.87226272  0.99511091  0.25147111    -0.22200
C3305       C  0.85679615  0.97699405  0.25398708    -0.10300
C3306       C  0.84088083  0.97742193  0.27212802     0.28600
F3307       F  0.82459528  0.96104995  0.27410330    -0.20800
H3308       H  0.83286585  0.99158986  0.30504488     0.17000
H3309       H  0.88429162  0.99542782  0.23726837     0.17000
F3310       F  0.89221782  0.02621685  0.26789245    -0.20800
C3311       C  0.97954969  0.85574333  0.29738118    -0.22200
C3312       C  0.99807331  0.87079018  0.29545080    -0.10300
C3313       C  0.00001557  0.88476034  0.27583630     0.28600
C3314       C  0.98215207  0.88558156  0.25987998    -0.22200
C3315       C  0.96230880  0.87260152  0.26345291    -0.10300
C3316       C  0.96171776  0.85662490  0.28153133     0.28600
F3317       F  0.94325864  0.84296696  0.28482574    -0.20800
H3318       H  0.97803709  0.84443146  0.31209026     0.17000
H3319       H  0.98307046  0.89773111  0.24580767     0.17000
F3320       F  0.01792263  0.89925212  0.27319453    -0.20800
C3321       C  0.89770194  0.79114346  0.28063518    -0.22200
C3322       C  0.88321941  0.78961205  0.26151777    -0.10300
C3323       C  0.87162974  0.76898134  0.25721107     0.28600
C3324       C  0.87165073  0.75169716  0.27384422    -0.22200
C3325       C  0.88344213  0.75483229  0.29457843    -0.10300
C3326       C  0.89798390  0.77380798  0.29703950     0.28600
F3327       F  0.91088392  0.77669265  0.31622071    -0.20800
H3328       H  0.90745850  0.80654706  0.28382505     0.17000
H3329       H  0.86086186  0.73687990  0.27133990     0.17000
F3330       F  0.85846786  0.76639895  0.23816296    -0.20800
C3331       C  0.86593736  0.76100867  0.16065978    -0.22200
C3332       C  0.87712783  0.77822726  0.14760999    -0.10300
C3333       C  0.89100877  0.77114312  0.12924599     0.28600
C3334       C  0.89395788  0.74762589  0.12450437    -0.22200
C3335       C  0.88326095  0.73039395  0.13790324    -0.10300
C3336       C  0.86893589  0.73745966  0.15594003     0.28600
F3337       F  0.85862531  0.72174142  0.16960706    -0.20800
H3338       H  0.85501195  0.76571334  0.17500224     0.17000
H3339       H  0.90516923  0.74289306  0.11038832     0.17000
F3340       F  0.90220902  0.78678546  0.11623001    -0.20800
C3341       C  0.75642216  0.87692916  0.24845177    -0.22200
C3342       C  0.77398292  0.89305443  0.25093790    -0.10300
C3343       C  0.77191184  0.91024115  0.26770244     0.28600
C3344       C  0.75500022  0.90851128  0.28446705    -0.22200
C3345       C  0.74006910  0.88978585  0.28441402    -0.10300
C3346       C  0.73943980  0.87520043  0.26523826     0.28600
F3347       F  0.72470978  0.85732960  0.26435037    -0.20800
H3348       H  0.75740127  0.86387497  0.23522998     0.17000
H3349       H  0.75512970  0.92041727  0.29876559     0.17000
F3350       F  0.78771669  0.92710562  0.26943008    -0.20800
C3351       C  0.76563523  0.89747228  0.12705468    -0.22200
C3352       C  0.77255668  0.88070512  0.14286584    -0.10300
C3353       C  0.75510031  0.86781514  0.15401392     0.28600
C3354       C  0.73163690  0.87246810  0.15026366    -0.22200
C3355       C  0.72469743  0.88997006  0.13529504    -0.10300
C3356       C  0.74213762  0.90207173  0.12323598     0.28600
F3357       F  0.73665374  0.91883308  0.10789092    -0.20800
H3358       H  0.77837907  0.90757338  0.11817094     0.17000
H3359       H  0.71891189  0.86274313  0.15959087     0.17000
F3360       F  0.76055425  0.85080066  0.16909393    -0.20800
C3361       C  0.75545267  0.60370691  0.89072173    -0.22200
C3362       C  0.77266393  0.61439408  0.87727142    -0.10300
C3363       C  0.76560124  0.62965020  0.86001375     0.28600
C3364       C  0.74208488  0.63390559  0.85629516    -0.22200
C3365       C  0.72485303  0.62311537  0.86962917    -0.10300
C3366       C  0.73190807  0.60798723  0.88701992     0.28600
F3367       F  0.71618622  0.59706683  0.90018926    -0.20800
H3368       H  0.76018702  0.59175249  0.90422785     0.17000
H3369       H  0.73740539  0.64566338  0.84260056     0.17000
F3370       F  0.78128186  0.64001900  0.84635575    -0.20800
C3371       C  0.86591717  0.63169306  0.77415683    -0.22200
C3372       C  0.87304126  0.60986410  0.78152029    -0.10300
C3373       C  0.87842165  0.59320964  0.76439062     0.28600
C3374       C  0.87607415  0.59824188  0.74076878    -0.22200
C3375       C  0.86828423  0.61991044  0.73351536    -0.10300
C3376       C  0.86364389  0.63670520  0.75060956     0.28600
F3377       F  0.85648844  0.65814431  0.74454368    -0.20800
H3378       H  0.86208658  0.64496853  0.78664618     0.17000
H3379       H  0.87929214  0.58484383  0.72824285     0.17000
F3380       F  0.88522038  0.57163645  0.77038371    -0.20800
C3381       C  0.98095994  0.63908450  0.90082521    -0.22200
C3382       C  0.97401206  0.62486252  0.88284525    -0.10300
C3383       C  0.99131648  0.61593698  0.86798066     0.28600
C3384       C  0.01485594  0.61931817  0.87235139    -0.22200
C3385       C  0.02195136  0.63205674  0.89139631    -0.10300
C3386       C  0.00449415  0.64281759  0.90499801     0.28600
F3387       F  0.01000494  0.65648452  0.92299980    -0.20800
H3388       H  0.96827138  0.64638976  0.91240108     0.17000
H3389       H  0.02752106  0.61140015  0.86115926     0.17000
F3390       F  0.98550228  0.60326102  0.84935599    -0.20800
C3391       C  0.89518247  0.63533748  0.98975685    -0.22200
C3392       C  0.87434926  0.62604467  0.98281674    -0.10300
C3393       C  0.85821623  0.61992526  0.00003257     0.28600
C3394       C  0.86338838  0.62196849  0.02354298    -0.22200
C3395       C  0.88468730  0.63028838  0.03057133    -0.10300
C3396       C  0.90038635  0.63743297  0.01321192     0.28600
F3397       F  0.92138207  0.64571772  0.01869160    -0.20800
H3398       H  0.90802670  0.63975047  0.97707317     0.17000
H3399       H  0.85083746  0.61676809  0.03620482     0.17000
F3400       F  0.83750353  0.61123518  0.99410595    -0.20800
C3401       C  0.86144195  0.27038102  0.14244016    -0.22200
C3402       C  0.87232051  0.27735076  0.12222156    -0.10300
C3403       C  0.88119295  0.25991244  0.10735886     0.28600
C3404       C  0.87843326  0.23646464  0.11229706    -0.22200
C3405       C  0.86671163  0.22957328  0.13200956    -0.10300
C3406       C  0.85871073  0.24689979  0.14735012     0.28600
F3407       F  0.84780020  0.24118268  0.16713028    -0.20800
H3408       H  0.85478068  0.28308827  0.15435263     0.17000
H3409       H  0.88455187  0.22374013  0.10011604     0.17000
F3410       F  0.89209936  0.26531486  0.08748866    -0.20800
C3411       C  0.76607311  0.36401111  0.14593665    -0.22200
C3412       C  0.77243167  0.37939590  0.12869467    -0.10300
C3413       C  0.75462755  0.39206678  0.11740265     0.28600
C3414       C  0.73129912  0.38791401  0.12190882    -0.22200
C3415       C  0.72493110  0.37135801  0.13800193    -0.10300
C3416       C  0.74273806  0.36012190  0.15070014     0.28600
F3417       F  0.73774060  0.34478354  0.16750833    -0.20800
H3418       H  0.77912315  0.35438622  0.15523562     0.17000
H3419       H  0.71824861  0.39711728  0.11220013     0.17000
F3420       F  0.75960496  0.40827668  0.10143830    -0.20800
C3421       C  0.87484439  0.52057705  0.10982072    -0.22200
C3422       C  0.88165807  0.52871495  0.13121214    -0.10300
C3423       C  0.88631627  0.51247080  0.14890874     0.28600
C3424       C  0.88421225  0.48867196  0.14510386    -0.22200
C3425       C  0.87765600  0.48049345  0.12351427    -0.10300
C3426       C  0.87312955  0.49693512  0.10585640     0.28600
F3427       F  0.86760239  0.49026927  0.08423188    -0.20800
H3428       H  0.87203647  0.53246476  0.09573356     0.17000
H3429       H  0.88750685  0.47674199  0.15904126     0.17000
F3430       F  0.89314372  0.51965603  0.16998346    -0.20800
C3431       C  0.86729743  0.49583793  0.02073897    -0.22200
C3432       C  0.88377057  0.47805504  0.01985703    -0.10300
C3433       C  0.90275827  0.48007844  0.00518204     0.28600
C3434       C  0.90315350  0.49760665  0.98893527    -0.22200
C3435       C  0.88463856  0.51315951  0.98722038    -0.10300
C3436       C  0.86765513  0.51341704  0.00440280     0.28600
F3437       F  0.84981181  0.52862402  0.00361713    -0.20800
H3438       H  0.85276454  0.49479165  0.03230995     0.17000
H3439       H  0.91677929  0.49761244  0.97623979     0.17000
F3440       F  0.91976105  0.46391047  0.00505100    -0.20800
C3441       C  0.00500530  0.40480490  0.14057258    -0.22200
C3442       C  0.02214080  0.38919764  0.13252691    -0.10300
C3443       C  0.01483081  0.36834650  0.12318422     0.28600
C3444       C  0.99115292  0.36398669  0.12084031    -0.22200
C3445       C  0.97413477  0.38010264  0.12799007    -0.10300
C3446       C  0.98143079  0.40035961  0.13842275     0.28600
F3447       F  0.96589941  0.41656788  0.14515664    -0.20800
H3448       H  0.00977992  0.42104444  0.14812427     0.17000
H3449       H  0.98606873  0.34809092  0.11276333     0.17000
F3450       F  0.03040039  0.35237458  0.11601735    -0.20800
C3451       C  0.12154791  0.35388093  0.77573630    -0.22200
C3452       C  0.11443608  0.37554818  0.78329537    -0.10300
C3453       C  0.10969397  0.39270212  0.76653095     0.28600
C3454       C  0.11171917  0.38803838  0.74283179    -0.22200
C3455       C  0.11841450  0.36614500  0.73522751    -0.10300
C3456       C  0.12334411  0.34911060  0.75216419     0.28600
F3457       F  0.12928353  0.32734098  0.74606536    -0.20800
H3458       H  0.12461006  0.34022234  0.78805790     0.17000
H3459       H  0.10815955  0.40155680  0.73049412     0.17000
F3460       F  0.10290752  0.41409475  0.77310331    -0.20800
C3461       C  0.11033843  0.23660288  0.89540474    -0.22200
C3462       C  0.12621281  0.22982186  0.87870653    -0.10300
C3463       C  0.13939458  0.24709197  0.86772266     0.28600
C3464       C  0.13488700  0.27048979  0.87155594    -0.22200
C3465       C  0.11753672  0.27729942  0.88671047    -0.10300
C3466       C  0.10613703  0.26000452  0.89956726     0.28600
F3467       F  0.09017967  0.26555955  0.91571230    -0.20800
H3468       H  0.10038387  0.22387015  0.90447379     0.17000
H3469       H  0.14429463  0.28321766  0.86190658     0.17000
F3470       F  0.15620393  0.24150280  0.85247564    -0.20800
C3471       C  0.12604247  0.48586255  0.90587631    -0.22200
C3472       C  0.11588211  0.47837223  0.88555337    -0.10300
C3473       C  0.10919662  0.49522402  0.86910166     0.28600
C3474       C  0.11174776  0.51889321  0.87335963    -0.22200
C3475       C  0.12112286  0.52652111  0.89408224    -0.10300
C3476       C  0.12859832  0.50945670  0.91020228     0.28600
F3477       F  0.13787267  0.51538032  0.93073369    -0.20800
H3478       H  0.13103002  0.47351732  0.91895194     0.17000
H3479       H  0.10628100  0.53122000  0.86046937     0.17000
F3480       F  0.09984715  0.48879321  0.84877823    -0.20800
C3481       C  0.97222725  0.49041909  0.91907227    -0.22200
C3482       C  0.97194980  0.50777449  0.90233805    -0.10300
C3483       C  0.99032206  0.50934424  0.88672019     0.28600
C3484       C  0.00673509  0.49177729  0.88574134    -0.22200
C3485       C  0.00476354  0.47257941  0.90011757    -0.10300
C3486       C  0.98856889  0.47282814  0.91799855     0.28600
F3487       F  0.98717981  0.45506295  0.93305284    -0.20800
H3488       H  0.95856175  0.48929059  0.93165758     0.17000
H3489       H  0.01939708  0.49205133  0.87209976     0.17000
F3490       F  0.99089803  0.52612471  0.87052539    -0.20800
C3491       C  0.12918324  0.39720849  0.99116882    -0.22200
C3492       C  0.11409121  0.37989690  0.98489909    -0.10300
C3493       C  0.10331298  0.36707993  0.00265014     0.28600
C3494       C  0.10712894  0.37206652  0.02590929    -0.22200
C3495       C  0.12164790  0.38990596  0.03217893    -0.10300
C3496       C  0.13289127  0.40229452  0.01440044     0.28600
F3497       F  0.14727014  0.41981248  0.01924595    -0.20800
H3498       H  0.13755049  0.40737548  0.97808191     0.17000
H3499       H  0.09835141  0.36223996  0.03898547     0.17000
F3500       F  0.08866877  0.34980668  0.99767649    -0.20800
C3501       C  0.98541862  0.40631706  0.97865877    -0.22200
C3502       C  0.00187978  0.38856243  0.97887905    -0.10300
C3503       C  0.00341705  0.37383202  0.99798329     0.28600
C3504       C  0.98662112  0.37502272  0.01505402    -0.22200
C3505       C  0.96829393  0.39079146  0.01305061    -0.10300
C3506       C  0.96868175  0.40748499  0.99563335     0.28600
F3507       F  0.95178302  0.42366362  0.99383659    -0.20800
H3508       H  0.98437328  0.41820588  0.96435026     0.17000
H3509       H  0.98677936  0.36219972  0.02855821     0.17000
F3510       F  0.01944012  0.35671953  0.99892993    -0.20800
C3511       C  0.63439336  0.36393304  0.76937430    -0.22200
C3512       C  0.62879719  0.38053826  0.78634452    -0.10300
C3513       C  0.62017190  0.40183408  0.77914019     0.28600
C3514       C  0.61798031  0.40662916  0.75562751    -0.22200
C3515       C  0.62414826  0.39033153  0.73849189    -0.10300
C3516       C  0.63199219  0.36866533  0.74573092     0.28600
F3517       F  0.63743313  0.35218285  0.73013336    -0.20800
H3518       H  0.64123089  0.34730920  0.77446937     0.17000
H3519       H  0.61178066  0.42358961  0.75088524     0.17000
F3520       F  0.61530123  0.41855979  0.79468078    -0.20800
C3521       C  0.76665379  0.47064167  0.86021250    -0.22200
C3522       C  0.74844037  0.47152110  0.87599688    -0.10300
C3523       C  0.74670445  0.49015347  0.89128935     0.28600
C3524       C  0.76464396  0.50577382  0.89278183    -0.22200
C3525       C  0.78431254  0.50290622  0.87908287    -0.10300
C3526       C  0.78451744  0.48622339  0.86173597     0.28600
F3527       F  0.80258920  0.48411565  0.84716418    -0.20800
H3528       H  0.76796042  0.45683393  0.84779829     0.17000
H3529       H  0.76396281  0.51889787  0.90594881     0.17000
F3530       F  0.72896676  0.49200916  0.90634683    -0.20800
C3531       C  0.62171499  0.48618449  0.86247446    -0.22200
C3532       C  0.63218930  0.47931788  0.88291112    -0.10300
C3533       C  0.63957594  0.49658034  0.89839445     0.28600
C3534       C  0.63694693  0.52008050  0.89317985    -0.22200
C3535       C  0.62699813  0.52700217  0.87239655    -0.10300
C3536       C  0.61926926  0.50955979  0.85711700     0.28600
F3537       F  0.60981034  0.51484456  0.83642253    -0.20800
H3538       H  0.61639030  0.47344786  0.85007709     0.17000
H3539       H  0.64282375  0.53280032  0.90532293     0.17000
F3540       F  0.64966766  0.49073280  0.91863256    -0.20800
C3541       C  0.65051082  0.38631825  0.00504848    -0.22200
C3542       C  0.63580189  0.37712632  0.98798115    -0.10300
C3543       C  0.61633392  0.36528862  0.99536783     0.28600
C3544       C  0.61231636  0.36203055  0.01900068    -0.22200
C3545       C  0.62748192  0.37050056  0.03599946    -0.10300
C3546       C  0.64646096  0.38308993  0.02867102     0.28600
F3547       F  0.66179996  0.39114808  0.04415815    -0.20800
H3548       H  0.66570837  0.39568249  0.00014628     0.17000
H3549       H  0.59741525  0.35225504  0.02402419     0.17000
F3550       F  0.60145076  0.35644722  0.97987536    -0.20800
C3551       C  0.74487571  0.38103375  0.99651206    -0.22200
C3552       C  0.74908502  0.36822837  0.97648735    -0.10300
C3553       C  0.76819455  0.35330849  0.97553511     0.28600
C3554       C  0.78450690  0.35381903  0.99288889    -0.22200
C3555       C  0.78204094  0.36924414  0.01121651    -0.10300
C3556       C  0.76133375  0.38159131  0.01391579     0.28600
F3557       F  0.75804097  0.39603068  0.03193983    -0.20800
H3558       H  0.72993372  0.39223212  0.99779519     0.17000
H3559       H  0.80005259  0.34359671  0.99091344     0.17000
F3560       F  0.77225199  0.33979292  0.95693747    -0.20800
C3561       C  0.63773286  0.23663686  0.87724203    -0.22200
C3562       C  0.62172618  0.22988016  0.89372134    -0.10300
C3563       C  0.60926378  0.24742557  0.90557246     0.28600
C3564       C  0.61397576  0.27084214  0.90211240    -0.22200
C3565       C  0.63098202  0.27754123  0.88660856    -0.10300
C3566       C  0.64224647  0.26002131  0.87357555     0.28600
F3567       F  0.65812324  0.26530557  0.85737986    -0.20800
H3568       H  0.64732227  0.22380257  0.86764149     0.17000
H3569       H  0.60475898  0.28366731  0.91207372     0.17000
F3570       F  0.59264785  0.24206320  0.92097564    -0.20800
C3571       C  0.00491851  0.12764736  0.85490407    -0.22200
C3572       C  0.02166755  0.13433358  0.87126501    -0.10300
C3573       C  0.01391689  0.14304394  0.89233502     0.28600
C3574       C  0.99017846  0.14528114  0.89661616    -0.22200
C3575       C  0.97352532  0.13882877  0.88011988    -0.10300
C3576       C  0.98125022  0.12980563  0.85921965     0.28600
F3577       F  0.96607277  0.12429174  0.84246806    -0.20800
H3578       H  0.01009993  0.12093033  0.83832780     0.17000
H3579       H  0.98475094  0.15255953  0.91288286     0.17000
F3580       F  0.02911889  0.14941622  0.90873110    -0.20800
C3581       C  0.85740463  0.12292267  0.99135178    -0.22200
C3582       C  0.87107751  0.14128145  0.98457182    -0.10300
C3583       C  0.88228436  0.15405446  0.00213430     0.28600
C3584       C  0.87893930  0.14915477  0.02555704    -0.22200
C3585       C  0.86444638  0.13145737  0.03230095    -0.10300
C3586       C  0.85415684  0.11797758  0.01478416     0.28600
F3587       F  0.84050812  0.10002470  0.02021238    -0.20800
H3588       H  0.84882559  0.11263250  0.97854057     0.17000
H3589       H  0.88706103  0.15977646  0.03840223     0.17000
F3590       F  0.89629539  0.17177559  0.99688563    -0.20800
C3591       C  0.87623899  0.27026866  0.01127033    -0.22200
C3592       C  0.86348256  0.29061046  0.00803176    -0.10300
C3593       C  0.84802766  0.29223804  0.98952128     0.28600
C3594       C  0.84791780  0.27522028  0.97279218    -0.22200
C3595       C  0.86309400  0.25640616  0.97435066    -0.10300
C3596       C  0.87604764  0.25313570  0.99451888     0.28600
F3597       F  0.89024785  0.23464701  0.99704832    -0.20800
H3598       H  0.88785490  0.26844706  0.02571348     0.17000
H3599       H  0.83722314  0.27768439  0.95773626     0.17000
F3600       F  0.83436002  0.31106873  0.98656026    -0.20800
C3601       C  0.98639458  0.24949908  0.88953315    -0.22200
C3602       C  0.96879452  0.25066724  0.87314160    -0.10300
C3603       C  0.96977189  0.26708377  0.85548486     0.28600
C3604       C  0.98615879  0.28422717  0.85628941    -0.22200
C3605       C  0.00184701  0.28487127  0.87449058    -0.10300
C3606       C  0.00292447  0.26657642  0.89027669     0.28600
F3607       F  0.01804908  0.26662311  0.90803082    -0.20800
H3608       H  0.98602727  0.23682088  0.90316458     0.17000
H3609       H  0.98551638  0.29790993  0.84365742     0.17000
F3610       F  0.95370107  0.26773388  0.83862219    -0.20800
C3611       C  0.76159678  0.24995115  0.88161327    -0.22200
C3612       C  0.78148520  0.25319021  0.89473544    -0.10300
C3613       C  0.78180234  0.27038882  0.91161356     0.28600
C3614       C  0.76400153  0.28646115  0.91256272    -0.22200
C3615       C  0.74590507  0.28542683  0.89672339    -0.10300
C3616       C  0.74374129  0.26603543  0.88258159     0.28600
F3617       F  0.72599008  0.26410012  0.86761304    -0.20800
H3618       H  0.76083104  0.23640148  0.86891041     0.17000
H3619       H  0.76550914  0.30092641  0.92413816     0.17000
F3620       F  0.80020380  0.27296869  0.92567539    -0.20800
C3621       C  0.72998989  0.15520207  0.88113927    -0.22200
C3622       C  0.72305202  0.13334682  0.88795416    -0.10300
C3623       C  0.74034852  0.11642299  0.89202720     0.28600
C3624       C  0.76389451  0.12157498  0.89017995    -0.22200
C3625       C  0.77090708  0.14370098  0.88412584    -0.10300
C3626       C  0.75346945  0.16040383  0.87930984     0.28600
F3627       F  0.75898096  0.18226693  0.87359955    -0.20800
H3628       H  0.71727554  0.16867811  0.87845265     0.17000
H3629       H  0.77660662  0.10824515  0.89348972     0.17000
F3630       F  0.73444055  0.09479357  0.89821198    -0.20800
C3631       C  0.86416153  0.15128461  0.76406951    -0.22200
C3632       C  0.87507869  0.13799595  0.78152871    -0.10300
C3633       C  0.88923112  0.11964946  0.77456829     0.28600
C3634       C  0.89310289  0.11555109  0.75098753    -0.22200
C3635       C  0.88291748  0.12947306  0.73361010    -0.10300
C3636       C  0.86797380  0.14715151  0.74054668     0.28600
F3637       F  0.85790257  0.16116511  0.72474773    -0.20800
H3638       H  0.85291320  0.16552329  0.76857337     0.17000
H3639       H  0.90462981  0.10158194  0.74632911     0.17000
F3640       F  0.89986856  0.10611413  0.79040278    -0.20800
C3641       C  0.85201841  0.48394624  0.62752247    -0.22200
C3642       C  0.87045710  0.47700554  0.64127466    -0.10300
C3643       C  0.88531895  0.49413504  0.64993724     0.28600
C3644       C  0.88081357  0.51760868  0.64615266    -0.22200
C3645       C  0.86153192  0.52464604  0.63353957    -0.10300
C3646       C  0.84752327  0.50735934  0.62366850     0.28600
F3647       F  0.82884232  0.51289697  0.61075437    -0.20800
H3648       H  0.84037287  0.47131162  0.62065538     0.17000
H3649       H  0.89209292  0.53025203  0.65358829     0.17000
F3650       F  0.90408681  0.48825595  0.66258964    -0.20800
C3651       C  0.77592069  0.40442941  0.77222467    -0.22200
C3652       C  0.77587376  0.38698228  0.75569404    -0.10300
C3653       C  0.75659594  0.37278553  0.75365253     0.28600
C3654       C  0.73954272  0.37359541  0.77051517    -0.22200
C3655       C  0.74170744  0.38862035  0.78919540    -0.10300
C3656       C  0.75884210  0.40538659  0.78885469     0.28600
F3657       F  0.76047792  0.42116762  0.80591740    -0.20800
H3658       H  0.79023649  0.41608513  0.77351223     0.17000
H3659       H  0.72610211  0.36089376  0.77021896     0.17000
F3660       F  0.75552733  0.35639063  0.73713694    -0.20800
C3661       C  0.75196053  0.37331620  0.66111570    -0.22200
C3662       C  0.76917740  0.38300532  0.64688983    -0.10300
C3663       C  0.76191775  0.39672548  0.62839810     0.28600
C3664       C  0.73827715  0.40076035  0.62457252    -0.22200
C3665       C  0.72114699  0.39118867  0.63894545    -0.10300
C3666       C  0.72838899  0.37726934  0.65724063     0.28600
F3667       F  0.71282250  0.36814099  0.67190471    -0.20800
H3668       H  0.75669088  0.36267633  0.67567423     0.17000
H3669       H  0.73336668  0.41168204  0.61027762     0.17000
F3670       F  0.77752448  0.40642300  0.61417021    -0.20800
C3671       C  0.84929886  0.46551418  0.78323147    -0.22200
C3672       C  0.86269586  0.46804464  0.76338501    -0.10300
C3673       C  0.87656364  0.48748513  0.76090294     0.28600
C3674       C  0.87875229  0.50275793  0.77918404    -0.22200
C3675       C  0.86744805  0.49852097  0.80004280    -0.10300
C3676       C  0.85189352  0.48037094  0.80159530     0.28600
F3677       F  0.84042138  0.47588586  0.82135274    -0.20800
H3678       H  0.83817877  0.45087264  0.78535854     0.17000
H3679       H  0.89059378  0.51687705  0.77757567     0.17000
F3680       F  0.88955670  0.49066028  0.74181947    -0.20800
C3681       C  0.98016818  0.36856938  0.62679595    -0.22200
C3682       C  0.97190734  0.37025336  0.64931472    -0.10300
C3683       C  0.98814858  0.37053548  0.66752982     0.28600
C3684       C  0.01190154  0.36961170  0.66320212    -0.22200
C3685       C  0.02014805  0.36809635  0.64068229    -0.10300
C3686       C  0.00396464  0.36736836  0.62252311     0.28600
F3687       F  0.01127347  0.36533875  0.60046469    -0.20800
H3688       H  0.96827207  0.36867712  0.61248932     0.17000
H3689       H  0.02379435  0.36903022  0.67751426     0.17000
F3690       F  0.98103485  0.37123952  0.68975256    -0.20800
C3691       C  0.96340647  0.35258736  0.77736032    -0.22200
C3692       C  0.96417707  0.36813140  0.75900462    -0.10300
C3693       C  0.98400386  0.38133149  0.75563198     0.28600
C3694       C  0.00117477  0.38136178  0.77241681    -0.22200
C3695       C  0.99862766  0.36819274  0.79243821    -0.10300
C3696       C  0.98047827  0.35254483  0.79398633     0.28600
F3697       F  0.97806689  0.33861323  0.81254623    -0.20800
H3698       H  0.94866539  0.34167265  0.77986378     0.17000
H3699       H  0.01532457  0.39315007  0.77068566     0.17000
F3700       F  0.98583984  0.39577119  0.73741766    -0.20800
C3701       C  0.90437799  0.28396079  0.77092120    -0.22200
C3702       C  0.88769910  0.28274133  0.75361353    -0.10300
C3703       C  0.87516724  0.26244858  0.75087986     0.28600
C3704       C  0.87627250  0.24556738  0.76787825    -0.22200
C3705       C  0.88983167  0.24897776  0.78747921    -0.10300
C3706       C  0.90551952  0.26711249  0.78781548     0.28600
F3707       F  0.92003667  0.27003768  0.80577376    -0.20800
H3708       H  0.91488889  0.29908443  0.77275980     0.17000
H3709       H  0.86456470  0.23128156  0.76694531     0.17000
F3710       F  0.85970950  0.26019784  0.73360414    -0.20800
C3711       C  0.88713479  0.26874098  0.62527907    -0.22200
C3712       C  0.87626697  0.27549841  0.64566703    -0.10300
C3713       C  0.86875704  0.25789790  0.66089119     0.28600
C3714       C  0.87207872  0.23455124  0.65580371    -0.22200
C3715       C  0.88327939  0.22782680  0.63569713    -0.10300
C3716       C  0.89070178  0.24527271  0.62035046     0.28600
F3717       F  0.90157641  0.23968755  0.60045376    -0.20800
H3718       H  0.89296674  0.28157434  0.61319646     0.17000
H3719       H  0.86666752  0.22173238  0.66811026     0.17000
F3720       F  0.85855147  0.26303194  0.68124758    -0.20800
C3721       C  0.63287789  0.76991032  0.86958212    -0.22200
C3722       C  0.61419484  0.77683646  0.88314365    -0.10300
C3723       C  0.60053859  0.75932795  0.89324672     0.28600
C3724       C  0.60479078  0.73593488  0.88881692    -0.22200
C3725       C  0.62269577  0.72911512  0.87429398    -0.10300
C3726       C  0.63717450  0.74644173  0.86526232     0.28600
F3727       F  0.65549466  0.74077333  0.85189959    -0.20800
H3728       H  0.64390457  0.78265290  0.86190128     0.17000
H3729       H  0.59344645  0.72320878  0.89605374     0.17000
F3730       F  0.58246431  0.76462950  0.90708257    -0.20800
C3731       C  0.62881864  0.85388876  0.77604981    -0.22200
C3732       C  0.61716153  0.87390795  0.78269960    -0.10300
C3733       C  0.60918730  0.88898758  0.76507279     0.28600
C3734       C  0.61246624  0.88386453  0.74164588    -0.22200
C3735       C  0.62365575  0.86356138  0.73494033    -0.10300
C3736       C  0.63191017  0.84863386  0.75263043     0.28600
F3737       F  0.64259496  0.82844325  0.74748376    -0.20800
H3738       H  0.63472624  0.84177408  0.78895939     0.17000
H3739       H  0.60603543  0.89573364  0.72875675     0.17000
F3740       F  0.59786964  0.90879589  0.77041275    -0.20800
C3741       C  0.63039860  0.98621025  0.90028884    -0.22200
C3742       C  0.61382217  0.97962098  0.88433074    -0.10300
C3743       C  0.60245451  0.99727673  0.87153105     0.28600
C3744       C  0.60674821  0.02066651  0.87558115    -0.22200
C3745       C  0.62260670  0.02727706  0.89226466    -0.10300
C3746       C  0.63487210  0.00957301  0.90416751     0.28600
F3747       F  0.65115515  0.01466695  0.91999372    -0.20800
H3748       H  0.63959044  0.97329341  0.91018750     0.17000
H3749       H  0.59728602  0.03359522  0.86595410     0.17000
F3750       F  0.58683737  0.99209487  0.85507657    -0.20800
C3751       C  0.63020539  0.89555839  0.99179422    -0.22200
C3752       C  0.61169707  0.88202833  0.98516441    -0.10300
C3753       C  0.59847675  0.87145618  0.00279716     0.28600
C3754       C  0.60338054  0.87490407  0.02614832    -0.22200
C3755       C  0.62138738  0.88903474  0.03274743    -0.10300
C3756       C  0.63501908  0.89909548  0.01518446     0.28600
F3757       F  0.65299488  0.91274336  0.02050807    -0.20800
H3758       H  0.64071267  0.90378859  0.97889620     0.17000
H3759       H  0.59254759  0.86712090  0.03906048     0.17000
F3760       F  0.58033497  0.85795547  0.99768849    -0.20800
C3761       C  0.35828159  0.76799329  0.14393793    -0.22200
C3762       C  0.37306943  0.77477690  0.12630558    -0.10300
C3763       C  0.38443041  0.75712976  0.11346942     0.28600
C3764       C  0.37986470  0.73375565  0.11722168    -0.22200
C3765       C  0.36399882  0.72707809  0.13386323    -0.10300
C3766       C  0.35383920  0.74454880  0.14776705     0.28600
F3767       F  0.33912391  0.73907398  0.16496456    -0.20800
H3768       H  0.34956633  0.78083038  0.15431489     0.17000
H3769       H  0.38808862  0.72094344  0.10642165     0.17000
F3770       F  0.39966183  0.76229969  0.09662369    -0.20800
C3771       C  0.25513146  0.88779782  0.11705173    -0.22200
C3772       C  0.27223849  0.87458655  0.12866616    -0.10300
C3773       C  0.26487531  0.85773018  0.14408822     0.28600
C3774       C  0.24119633  0.85359044  0.14681274    -0.22200
C3775       C  0.22420457  0.86609602  0.13427266    -0.10300
C3776       C  0.23156955  0.88362468  0.11969993     0.28600
F3777       F  0.21617082  0.89608958  0.10721703    -0.20800
H3778       H  0.25996515  0.90117912  0.10511937     0.17000
H3779       H  0.23619287  0.84002657  0.15846199     0.17000
F3780       F  0.28040019  0.84466777  0.15578828    -0.20800
C3781       C  0.49200758  0.86664622  0.10944703    -0.22200
C3782       C  0.47447635  0.87925846  0.12100979    -0.10300
C3783       C  0.48115530  0.89568137  0.13713299     0.28600
C3784       C  0.50456141  0.89971410  0.14107790    -0.22200
C3785       C  0.52215447  0.88756923  0.12912166    -0.10300
C3786       C  0.51551335  0.87067975  0.11343355     0.28600
F3787       F  0.53157731  0.85859393  0.10145453    -0.20800
H3788       H  0.48753061  0.85374776  0.09689066     0.17000
H3789       H  0.50885764  0.91288792  0.15340999     0.17000
F3790       F  0.46516957  0.90845773  0.14851016    -0.20800
C3791       C  0.47453742  0.90191505  0.96987037    -0.22200
C3792       C  0.49480783  0.88898554  0.97276950    -0.10300
C3793       C  0.49861437  0.87732720  0.99364023     0.28600
C3794       C  0.48089213  0.87590302  0.00977360    -0.22200
C3795       C  0.45947024  0.88630867  0.00529718    -0.10300
C3796       C  0.45695928  0.90062743  0.98595388     0.28600
F3797       F  0.43695928  0.91207542  0.98161928    -0.20800
H3798       H  0.47152097  0.91168595  0.95427921     0.17000
H3799       H  0.48341798  0.86535202  0.02492752     0.17000
F3800       F  0.51860638  0.86577158  0.99765436    -0.20800
C3801       C  0.39409737  0.98416663  0.13976188    -0.22200
C3802       C  0.37656054  0.97790610  0.12470063    -0.10300
C3803       C  0.36323532  0.99590039  0.11448432     0.28600
C3804       C  0.36805777  0.01922757  0.11855265    -0.22200
C3805       C  0.38613487  0.02548840  0.13301008    -0.10300
C3806       C  0.39885856  0.00745528  0.14391407     0.28600
F3807       F  0.41633176  0.01213129  0.15855024    -0.20800
H3808       H  0.40458245  0.97101854  0.14793878     0.17000
H3809       H  0.35780188  0.03238056  0.11010174     0.17000
F3810       F  0.34542008  0.99108707  0.10030858    -0.20800
C3811       C  0.25423109  0.10522600  0.89358777    -0.22200
C3812       C  0.27124901  0.11858158  0.88254511    -0.10300
C3813       C  0.26409933  0.13616336  0.86774355     0.28600
C3814       C  0.24058461  0.13992073  0.86384857    -0.22200
C3815       C  0.22361228  0.12619296  0.87447830    -0.10300
C3816       C  0.23074471  0.10889579  0.88958654     0.28600
F3817       F  0.21521718  0.09492922  0.89970894    -0.20800
H3818       H  0.25905585  0.09140196  0.90514354     0.17000
H3819       H  0.23569299  0.15347684  0.85200223     0.17000
F3820       F  0.27968325  0.14923968  0.85655189    -0.20800
C3821       C  0.37636279  0.11572534  0.74393198    -0.22200
C3822       C  0.35877279  0.13075375  0.73727548    -0.10300
C3823       C  0.34582631  0.14202526  0.75485468     0.28600
C3824       C  0.35010058  0.13767055  0.77827945    -0.22200
C3825       C  0.36729860  0.12205662  0.78486911    -0.10300
C3826       C  0.38065402  0.11142083  0.76724853     0.28600
F3827       F  0.39797682  0.09647002  0.77237759    -0.20800
H3828       H  0.38661189  0.10692412  0.73105939     0.17000
H3829       H  0.33955931  0.14605969  0.79119058     0.17000
F3830       F  0.32869237  0.15715744  0.74957025    -0.20800
C3831       C  0.51351882  0.11542652  0.87510344    -0.22200
C3832       C  0.52080299  0.12477922  0.89598125    -0.10300
C3833       C  0.50353363  0.13197997  0.91191556     0.28600
C3834       C  0.48004221  0.12968611  0.90711341    -0.22200
C3835       C  0.47282053  0.11981341  0.88658752    -0.10300
C3836       C  0.48989925  0.11288815  0.87045213     0.28600
F3837       F  0.48378144  0.10338849  0.85009355    -0.20800
H3838       H  0.52605773  0.10993967  0.86243883     0.17000
H3839       H  0.46751382  0.13468343  0.91999505     0.17000
F3840       F  0.50914050  0.14077449  0.93272801    -0.20800
C3841       C  0.46684318  0.98914232  0.90758370    -0.22200
C3842       C  0.46618371  0.00575143  0.89016456    -0.10300
C3843       C  0.48426086  0.00692653  0.87418713     0.28600
C3844       C  0.50119413  0.98980331  0.87402543    -0.22200
C3845       C  0.50003360  0.97150571  0.88964904    -0.10300
C3846       C  0.48371727  0.97208088  0.90740094     0.28600
F3847       F  0.48300392  0.95519695  0.92349158    -0.20800
H3848       H  0.45330812  0.98836049  0.92034463     0.17000
H3849       H  0.51382393  0.98969558  0.86034578     0.17000
F3850       F  0.48417568  0.02290931  0.85717596    -0.20800
C3851       C  0.39216809  0.13288972  0.99303239    -0.22200
C3852       C  0.37431775  0.11853403  0.98654307    -0.10300
C3853       C  0.36071343  0.10854686  0.00415298     0.28600
C3854       C  0.36575938  0.11194669  0.02753667    -0.22200
C3855       C  0.38439043  0.12538779  0.03403459    -0.10300
C3856       C  0.39722431  0.13631341  0.01632493     0.28600
F3857       F  0.41525171  0.15002943  0.02127718    -0.20800
H3858       H  0.40285517  0.14078386  0.98006548     0.17000
H3859       H  0.35544074  0.10358475  0.04050018     0.17000
F3860       F  0.34261566  0.09505681  0.99885523    -0.20800
C3861       C  0.36667978  0.00489602  0.99542550    -0.22200
C3862       C  0.38099190  0.00190756  0.97620221    -0.10300
C3863       C  0.39646815  0.98323989  0.97552688     0.28600
C3864       C  0.39538743  0.96625185  0.99225249    -0.22200
C3865       C  0.37900169  0.96773206  0.00984896    -0.10300
C3866       C  0.36565194  0.98786049  0.01227141     0.28600
F3867       F  0.35000202  0.99007014  0.02945463    -0.20800
H3868       H  0.35487601  0.01938458  0.99644616     0.17000
H3869       H  0.40629544  0.95114401  0.99051307     0.17000
F3870       F  0.41141623  0.98046784  0.95780282    -0.20800
C3871       C  0.36490212  0.65724442  0.76604198    -0.22200
C3872       C  0.37429435  0.64211037  0.78286086    -0.10300
C3873       C  0.38564040  0.62221927  0.77511853     0.28600
C3874       C  0.38836657  0.61829548  0.75137298    -0.22200
C3875       C  0.37979272  0.63395694  0.73463674    -0.10300
C3876       C  0.36753216  0.65325960  0.74234862     0.28600
F3877       F  0.35918105  0.66894094  0.72713781    -0.20800
H3878       H  0.35581761  0.67273913  0.77117859     0.17000
H3879       H  0.39781716  0.60307398  0.74604914     0.17000
F3880       F  0.39449601  0.60682588  0.79034232    -0.20800
C3881       C  0.46883873  0.76596793  0.85832746    -0.22200
C3882       C  0.46936432  0.74955398  0.87595450    -0.10300
C3883       C  0.48879276  0.74788121  0.89025546     0.28600
C3884       C  0.50548445  0.76492493  0.88927984    -0.22200
C3885       C  0.50286661  0.78344516  0.87396292    -0.10300
C3886       C  0.48551649  0.78279551  0.85723774     0.28600
F3887       F  0.48339594  0.79959858  0.84117250    -0.20800
H3888       H  0.45442672  0.76699041  0.84656631     0.17000
H3889       H  0.51913941  0.76477591  0.90192576     0.17000
F3890       F  0.49040483  0.73146043  0.90677526    -0.20800
C3891       C  0.50574842  0.61834074  0.86132716    -0.22200
C3892       C  0.52289718  0.63178555  0.87201106    -0.10300
C3893       C  0.51580679  0.64900240  0.88724994     0.28600
C3894       C  0.49228764  0.65291843  0.89120443    -0.22200
C3895       C  0.47507673  0.63982538  0.88013709    -0.10300
C3896       C  0.48218806  0.62225841  0.86529123     0.28600
F3897       F  0.46651682  0.60918735  0.85427727    -0.20800
H3898       H  0.51055341  0.60480565  0.84945992     0.17000
H3899       H  0.48760001  0.66668050  0.90285197     0.17000
F3900       F  0.53143220  0.66259827  0.89768735    -0.20800
C3901       C  0.38651094  0.64409864  0.00243640    -0.22200
C3902       C  0.37167464  0.63553763  0.98516476    -0.10300
C3903       C  0.35300093  0.62233822  0.99209155     0.28600
C3904       C  0.34885784  0.61861582  0.01558241    -0.22200
C3905       C  0.36316246  0.62790992  0.03293802    -0.10300
C3906       C  0.38238159  0.64035238  0.02597608     0.28600
F3907       F  0.39692419  0.64922479  0.04177651    -0.20800
H3908       H  0.40123016  0.65428334  0.99772245     0.17000
H3909       H  0.33387077  0.60876367  0.02014030     0.17000
F3910       F  0.33806131  0.61404377  0.97634463    -0.20800
C3911       C  0.34236943  0.76479561  0.98002040    -0.22200
C3912       C  0.35965149  0.74783950  0.98107286    -0.10300
C3913       C  0.37229578  0.74494864  0.00146441     0.28600
C3914       C  0.37058335  0.76153742  0.01870361    -0.22200
C3915       C  0.35622637  0.78084619  0.01560417    -0.10300
C3916       C  0.34049918  0.78118673  0.99728010     0.28600
F3917       F  0.32511701  0.79872061  0.99465742    -0.20800
H3918       H  0.33173971  0.76668939  0.96483024     0.17000
H3919       H  0.38230784  0.76054765  0.03313298     0.17000
F3920       F  0.38825589  0.72789278  0.00358029    -0.20800
C3921       C  0.25602096  0.64992157  0.86895999    -0.22200
C3922       C  0.27297851  0.63861552  0.88259136    -0.10300
C3923       C  0.26570438  0.62180341  0.89803372     0.28600
C3924       C  0.24218249  0.61737476  0.90060887    -0.22200
C3925       C  0.22506362  0.62958157  0.88799030    -0.10300
C3926       C  0.23239629  0.64544611  0.87151732     0.28600
F3927       F  0.21686835  0.65721952  0.85854060    -0.20800
H3928       H  0.26100612  0.66282537  0.85656859     0.17000
H3929       H  0.23737290  0.60469989  0.91330176     0.17000
F3930       F  0.28111492  0.61047817  0.91152960    -0.20800
C3931       C  0.11355430  0.98878564  0.87161925    -0.22200
C3932       C  0.13275186  0.98193754  0.88448268    -0.10300
C3933       C  0.14587487  0.99947199  0.89523638     0.28600
C3934       C  0.14107631  0.02286164  0.89142488    -0.22200
C3935       C  0.12294668  0.02962127  0.87717165    -0.10300
C3936       C  0.10853728  0.01227266  0.86818523     0.28600
F3937       F  0.08967476  0.01798087  0.85561462    -0.20800
H3938       H  0.10273128  0.97600964  0.86374948     0.17000
H3939       H  0.15221642  0.03564432  0.89884285     0.17000
F3940       F  0.16398542  0.99424253  0.90906490    -0.20800
C3941       C  0.11749874  0.86203883  0.99173189    -0.22200
C3942       C  0.13611048  0.87553427  0.98536297    -0.10300
C3943       C  0.14980497  0.88509425  0.00322835     0.28600
C3944       C  0.14486932  0.88114173  0.02651048    -0.22200
C3945       C  0.12642232  0.86742474  0.03284218    -0.10300
C3946       C  0.11267424  0.85797806  0.01504657     0.28600
F3947       F  0.09437529  0.84463896  0.02003941    -0.20800
H3948       H  0.10669683  0.85450849  0.97867396     0.17000
H3949       H  0.15587065  0.88838556  0.03957286     0.17000
F3950       F  0.16838422  0.89814734  0.99843464    -0.20800
C3951       C  0.27112746  0.84908811  0.00340032    -0.22200
C3952       C  0.27276759  0.86751223  0.01877777    -0.10300
C3953       C  0.25562509  0.88473380  0.01883349     0.28600
C3954       C  0.23946810  0.88544865  0.00116334    -0.22200
C3955       C  0.24048627  0.86909221  0.98351734    -0.10300
C3956       C  0.25494487  0.84980221  0.98582139     0.28600
F3957       F  0.25487602  0.83279444  0.96990399    -0.20800
H3958       H  0.28377664  0.83527987  0.00362370     0.17000
H3959       H  0.22802241  0.90020675  0.99988730     0.17000
F3960       F  0.25637616  0.90253797  0.03383948    -0.20800
C3961       C  0.26203398  0.97431353  0.85627201    -0.22200
C3962       C  0.24546829  0.97446999  0.87373903    -0.10300
C3963       C  0.24313040  0.99383513  0.88799214     0.28600
C3964       C  0.25964735  0.01094379  0.88718802    -0.22200
C3965       C  0.27839610  0.00877165  0.87217791    -0.10300
C3966       C  0.27837755  0.99152107  0.85532019     0.28600
F3967       F  0.29540582  0.99000494  0.83941787    -0.20800
H3968       H  0.26353108  0.95988703  0.84461612     0.17000
H3969       H  0.25907732  0.02444251  0.89997313     0.17000
F3970       F  0.22680698  0.99484997  0.90463881    -0.20800
C3971       C  0.24437273  0.76693008  0.89085213    -0.22200
C3972       C  0.24839709  0.78739621  0.90282953    -0.10300
C3973       C  0.26750085  0.78876775  0.91751465     0.28600
C3974       C  0.28425090  0.77163831  0.91701308    -0.22200
C3975       C  0.28215531  0.75307201  0.90190211    -0.10300
C3976       C  0.26122284  0.74966774  0.89041703     0.28600
F3977       F  0.25802367  0.73102958  0.87686418    -0.20800
H3978       H  0.22935740  0.76522930  0.88002089     0.17000
H3979       H  0.29988193  0.77411309  0.92677110     0.17000
F3980       F  0.27138273  0.80776689  0.93037026    -0.20800
C3981       C  0.14070003  0.73815125  0.87206236    -0.22200
C3982       C  0.12490764  0.73097266  0.88863589    -0.10300
C3983       C  0.11232598  0.74842063  0.90062351     0.28600
C3984       C  0.11674689  0.77195937  0.89733172    -0.22200
C3985       C  0.13361814  0.77906931  0.88186559    -0.10300
C3986       C  0.14492024  0.76174156  0.86858627     0.28600
F3987       F  0.16058754  0.76748749  0.85235546    -0.20800
H3988       H  0.15039449  0.72551934  0.86230654     0.17000
H3989       H  0.10750854  0.78456504  0.90755034     0.17000
F3990       F  0.09590655  0.74285386  0.91616719    -0.20800
C3991       C  0.15054811  0.87670670  0.74137196    -0.22200
C3992       C  0.13364142  0.89251435  0.73448308    -0.10300
C3993       C  0.12076223  0.90396775  0.75197601     0.28600
C3994       C  0.12477969  0.89969947  0.77539101    -0.22200
C3995       C  0.14185318  0.88416367  0.78232133    -0.10300
C3996       C  0.15475991  0.87264067  0.76487683     0.28600
F3997       F  0.17176454  0.85744785  0.77036866    -0.20800
H3998       H  0.16086512  0.86783394  0.72860309     0.17000
H3999       H  0.11471823  0.90890652  0.78812789     0.17000
F4000       F  0.10414929  0.91964281  0.74664690    -0.20800
C4001       C  0.39105026  0.77468033  0.62769092    -0.22200
C4002       C  0.37718645  0.78178187  0.64600745    -0.10300
C4003       C  0.36572544  0.76451580  0.65891795     0.28600
C4004       C  0.36894608  0.74102707  0.65414010    -0.22200
C4005       C  0.38358941  0.73391944  0.63644720    -0.10300
C4006       C  0.39421995  0.75118233  0.62289619     0.28600
F4007       F  0.40807520  0.74545799  0.60498517    -0.20800
H4008       H  0.39987271  0.78728473  0.61734161     0.17000
H4009       H  0.36053107  0.72839589  0.66480071     0.17000
F4010       F  0.35156326  0.77012912  0.67663307    -0.20800
C4011       C  0.48550296  0.85968890  0.63022664    -0.22200
C4012       C  0.47905571  0.87852837  0.64363987    -0.10300
C4013       C  0.49679682  0.89231923  0.65300589     0.28600
C4014       C  0.52016361  0.88687439  0.64951768    -0.22200
C4015       C  0.52662967  0.86760453  0.63664251    -0.10300
C4016       C  0.50882643  0.85416976  0.62682160     0.28600
F4017       F  0.51374215  0.83516370  0.61418829    -0.20800
H4018       H  0.47248803  0.84866551  0.62304397     0.17000
H4019       H  0.53317172  0.89762529  0.65711709     0.17000
F4020       F  0.49166048  0.91112059  0.66588078    -0.20800
C4021       C  0.37195228  0.77069422  0.75762451    -0.22200
C4022       C  0.38687232  0.78925583  0.76035823    -0.10300
C4023       C  0.40315726  0.78875757  0.77816476     0.28600
C4024       C  0.40231533  0.77163372  0.79476961    -0.22200
C4025       C  0.38531298  0.75483612  0.79380953    -0.10300
C4026       C  0.37116037  0.75343739  0.77427680     0.28600
F4027       F  0.35505794  0.73687207  0.77236746    -0.20800
H4028       H  0.35956342  0.77053689  0.74373904     0.17000
H4029       H  0.41387491  0.77255458  0.80932633     0.17000
F4030       F  0.41870064  0.80578069  0.78060237    -0.20800
C4031       C  0.51084742  0.87766578  0.76715773    -0.22200
C4032       C  0.50754675  0.86362968  0.78647697    -0.10300
C4033       C  0.48981323  0.84751173  0.78637860     0.28600
C4034       C  0.47308053  0.84863756  0.76941162    -0.22200
C4035       C  0.47400928  0.86575271  0.75250209    -0.10300
C4036       C  0.49407994  0.87872709  0.75004743     0.28600
F4037       F  0.49613707  0.89450719  0.73300301    -0.20800
H4038       H  0.52487637  0.88970967  0.76657110     0.17000
H4039       H  0.45816090  0.83779020  0.77097818     0.17000
F4040       F  0.48708885  0.83257308  0.80406430    -0.20800
C4041       C  0.38430377  0.00155104  0.66065103    -0.22200
C4042       C  0.37420928  0.98434118  0.64675731    -0.10300
C4043       C  0.36030461  0.99145956  0.62841494     0.28600
C4044       C  0.35612844  0.01498792  0.62462103    -0.22200
C4045       C  0.36564107  0.03212993  0.63895530    -0.10300
C4046       C  0.38011344  0.02507333  0.65685924     0.28600
F4047       F  0.38941654  0.04071719  0.67128243    -0.20800
H4048       H  0.39525051  0.99684366  0.67498300     0.17000
H4049       H  0.34493257  0.01977110  0.61050123     0.17000
F4050       F  0.35037859  0.97581511  0.61443617    -0.20800
C4051       C  0.37900239  0.99603096  0.75350211    -0.22200
C4052       C  0.36548850  0.97638591  0.75550543    -0.10300
C4053       C  0.34769189  0.97580148  0.77178503     0.28600
C4054       C  0.34613350  0.99283166  0.78838018    -0.22200
C4055       C  0.36218144  0.01053662  0.78871441    -0.10300
C4056       C  0.37736373  0.01321024  0.77009076     0.28600
F4057       F  0.39256819  0.03069826  0.76943404    -0.20800
H4058       H  0.39247304  0.99695387  0.74069267     0.17000
H4059       H  0.33381314  0.99095384  0.80220298     0.17000
F4060       F  0.33335799  0.95761973  0.77312899    -0.20800
C4061       C  0.28661827  0.90944516  0.78003677    -0.22200
C4062       C  0.28648859  0.89347402  0.76205180    -0.10300
C4063       C  0.26743929  0.87906178  0.75929555     0.28600
C4064       C  0.25042013  0.87855439  0.77611789    -0.22200
C4065       C  0.25227632  0.89236557  0.79570007    -0.10300
C4066       C  0.26949113  0.90906325  0.79672349     0.28600
F4067       F  0.27079051  0.92379669  0.81472418    -0.20800
H4068       H  0.30079673  0.92115653  0.78205405     0.17000
H4069       H  0.23702427  0.86586639  0.77481692     0.17000
F4070       F  0.26642988  0.86371470  0.74180210    -0.20800
C4071       C  0.26945794  0.89081335  0.62463923    -0.22200
C4072       C  0.27665218  0.88753249  0.64741472    -0.10300
C4073       C  0.25945400  0.88521999  0.66459706     0.28600
C4074       C  0.23600363  0.88624294  0.65913176    -0.22200
C4075       C  0.22884811  0.89004228  0.63655448    -0.10300
C4076       C  0.24583735  0.89216859  0.61926149     0.28600
F4077       F  0.23952620  0.89576095  0.59707937    -0.20800
H4078       H  0.28204726  0.89219642  0.61102038     0.17000
H4079       H  0.22342913  0.88535648  0.67282541     0.17000
F4080       F  0.26519846  0.88270274  0.68707750    -0.20800
loop_ 
_geom_bond_atom_site_label_1 
_geom_bond_atom_site_label_2 
_geom_bond_distance 
_geom_bond_site_symmetry_2 
_ccdc_geom_bond_type 
N1            N2   1.318       .  A
N1            N7   1.309       .  A
N1          Mn30   2.180       .  S
N2            C9   1.354       .  A
N3            N5   1.309       .  A
N3            N4   1.319       .  A
N3          Mn19   2.179       .  S
N4           C10   1.353       .  A
N5            N6   1.315       .  A
N5          Mn30   2.168       .  S
N6           C10   1.351       .  A
N7            N8   1.316       .  A
N7          Mn19   2.170       .  S
N8            C9   1.350       .  A
C9         C4062   1.467       .  S
C10        C4022   1.467       .  S
N11          N17   1.319       .  A
N11          N12   1.339       .  A
N11         Mn41   2.318       .  S
N12          C20   1.377       .  A
N13          N14   1.309       .  A
N13          N15   1.318       .  A
N13         Mn19   2.144       .  S
N14          C21   1.336       .  A
N15          N16   1.340       .  A
N15         Mn41   2.313       .  S
N16          C21   1.376       .  A
N17          N18   1.308       .  A
N17         Mn19   2.137       .  S
N18          C20   1.335       .  A
Mn19        Cl43   2.507       .  S
C20        C4002   1.503       .  S
C21        C4072   1.501       .  S
N22          N23   1.315       .  A
N22          N28   1.310       .  A
N22         Mn30   2.173       .  S
N23          C31   1.351       .  A
N24          N26   1.309       .  A
N24          N25   1.320       .  A
N24         Mn42   2.172       .  S
N25          C32   1.352       .  A
N26          N27   1.313       .  A
N26         Mn30   2.160       .  S
N27          C32   1.348       .  A
N28          N29   1.319       .  A
N28         Mn42   2.174       .  S
N29          C31   1.351       .  A
Mn30        Cl43   2.563       .  S
C31        C4035   1.464       .  S
C32        C4052   1.460       .  S
N33          N34   1.339       .  A
N33          N39   1.319       .  A
N33         Mn41   2.319       .  S
N34          C44   1.376       .  A
N35          N36   1.308       .  A
N35          N37   1.318       .  A
N35         Mn42   2.132       .  S
N36          C45   1.334       .  A
N37          N38   1.340       .  A
N37         Mn41   2.323       .  S
N38          C45   1.377       .  A
N39          N40   1.309       .  A
N39         Mn42   2.137       .  S
N40          C44   1.336       .  A
Mn41        Cl43   2.573       .  S
Mn42        Cl43   2.516       .  S
C44        C4042   1.500       .  S
C45        C4012   1.500       .  S
N46          N47   1.320       .  A
N46          N52   1.309       .  A
N46         Mn75   2.185       .  S
N47          C54   1.354       .  A
N48          N50   1.310       .  A
N48          N49   1.313       .  A
N48         Mn64   2.166       .  S
N49          C55   1.349       .  A
N50          N51   1.320       .  A
N50         Mn75   2.180       .  S
N51          C55   1.354       .  A
N52          N53   1.314       .  A
N52         Mn64   2.162       .  S
N53          C54   1.349       .  A
C54        C4065   1.465       .  S
C55        C3972   1.466       .  S
N56          N62   1.307       .  A
N56          N57   1.318       .  A
N56         Mn86   2.165       .  S
N57          C65   1.349       .  A
N58          N59   1.317       .  A
N58          N60   1.308       .  A
N58         Mn64   2.178       .  S
N59          C66   1.353       .  A
N60          N61   1.317       .  A
N60         Mn86   2.165       .  S
N61          C66   1.350       .  A
N62          N63   1.317       .  A
N62         Mn64   2.176       .  S
N63          C65   1.353       .  A
Mn64        Cl88   2.565       .  S
C65        C3955   1.462       .  S
C66        C3962   1.464       .  S
N67          N68   1.312       .  A
N67          N73   1.319       .  A
N67         Mn75   2.150       .  S
N68          C76   1.337       .  A
N69          N71   1.320       .  A
N69          N70   1.339       .  A
N69         Mn87   2.323       .  S
N70          C77   1.377       .  A
N71          N72   1.310       .  A
N71         Mn75   2.145       .  S
N72          C77   1.336       .  A
N73          N74   1.342       .  A
N73         Mn87   2.331       .  S
N74          C76   1.378       .  A
Mn75        Cl88   2.512       .  S
C76        C3985   1.513       .  S
C77        C3995   1.503       .  S
N78          N79   1.307       .  A
N78          N84   1.317       .  A
N78         Mn86   2.124       .  S
N79          C89   1.333       .  A
N80          N81   1.340       .  A
N80          N82   1.318       .  A
N80         Mn87   2.324       .  S
N81          C90   1.379       .  A
N82          N83   1.306       .  A
N82         Mn86   2.126       .  S
N83          C90   1.331       .  A
N84          N85   1.342       .  A
N84         Mn87   2.332       .  S
N85          C89   1.379       .  A
Mn86        Cl88   2.510       .  S
Mn87        Cl88   2.571       .  S
C89        C3932   1.506       .  S
C90        C3942   1.502       .  S
N91          N92   1.321       .  A
N91          N97   1.309       .  A
N91        Mn120   2.182       .  S
N92          C99   1.353       .  A
N93          N95   1.309       .  A
N93          N94   1.315       .  A
N93        Mn109   2.173       .  S
N94         C100   1.350       .  A
N95          N96   1.321       .  A
N95        Mn120   2.178       .  S
N96         C100   1.353       .  A
N97          N98   1.315       .  A
N97        Mn109   2.173       .  S
N98          C99   1.352       .  A
C99        C3882   1.468       .  S
C100       C3912   1.467       .  S
N101        N107   1.309       .  A
N101        N102   1.319       .  A
N101       Mn131   2.175       .  S
N102        C110   1.352       .  A
N103        N104   1.315       .  A
N103        N105   1.309       .  A
N103       Mn109   2.173       .  S
N104        C111   1.352       .  A
N105        N106   1.319       .  A
N105       Mn131   2.175       .  S
N106        C111   1.351       .  A
N107        N108   1.314       .  A
N107       Mn109   2.167       .  S
N108        C110   1.350       .  A
Mn109      Cl133   2.558       .  S
C110       C3975   1.466       .  S
C111       C4025   1.466       .  S
N112        N113   1.310       .  A
N112        N118   1.320       .  A
N112       Mn120   2.139       .  S
N113        C121   1.336       .  A
N114        N116   1.319       .  A
N114        N115   1.339       .  A
N114       Mn132   2.318       .  S
N115        C122   1.377       .  A
N116        N117   1.307       .  A
N116       Mn120   2.132       .  S
N117        C122   1.334       .  A
N118        N119   1.339       .  A
N118       Mn132   2.322       .  S
N119        C121   1.376       .  A
Mn120      Cl133   2.522       .  S
C121       C3902   1.498       .  S
C122       C3895   1.499       .  S
N123        N124   1.310       .  A
N123        N129   1.319       .  A
N123       Mn131   2.145       .  S
N124        C134   1.337       .  A
N125        N126   1.338       .  A
N125        N127   1.319       .  A
N125       Mn132   2.316       .  S
N126        C135   1.375       .  A
N127        N128   1.311       .  A
N127       Mn131   2.144       .  S
N128        C135   1.337       .  A
N129        N130   1.340       .  A
N129       Mn132   2.317       .  S
N130        C134   1.377       .  A
Mn131      Cl133   2.517       .  S
Mn132      Cl133   2.568       .  S
C134       C3872   1.505       .  S
C135       C3922   1.501       .  S
N136        N137   1.319       .  A
N136        N142   1.309       .  A
N136       Mn165   2.180       .  S
N137        C144   1.353       .  A
N138        N140   1.309       .  A
N138        N139   1.315       .  A
N138       Mn154   2.178       .  S
N139        C145   1.352       .  A
N140        N141   1.318       .  A
N140       Mn165   2.171       .  S
N141        C145   1.352       .  A
N142        N143   1.315       .  A
N142       Mn154   2.169       .  S
N143        C144   1.351       .  A
C144       C3965   1.465       .  S
C145       C3862   1.466       .  S
N146        N152   1.310       .  A
N146        N147   1.317       .  A
N146       Mn176   2.167       .  S
N147        C155   1.350       .  A
N148        N149   1.316       .  A
N148        N150   1.308       .  A
N148       Mn154   2.174       .  S
N149        C156   1.353       .  A
N150        N151   1.316       .  A
N150       Mn176   2.161       .  S
N151        C156   1.349       .  A
N152        N153   1.315       .  A
N152       Mn154   2.173       .  S
N153        C155   1.351       .  A
Mn154      Cl178   2.560       .  S
C155       C3842   1.460       .  S
C156       C4055   1.462       .  S
N157        N158   1.310       .  A
N157        N163   1.319       .  A
N157       Mn165   2.142       .  S
N158        C166   1.336       .  A
N159        N161   1.317       .  A
N159        N160   1.336       .  A
N159       Mn177   2.297       .  S
N160        C167   1.374       .  A
N161        N162   1.306       .  A
N161       Mn165   2.127       .  S
N162        C167   1.334       .  A
N163        N164   1.337       .  A
N163       Mn177   2.310       .  S
N164        C166   1.374       .  A
Mn165      Cl178   2.511       .  S
C166       C3852   1.496       .  S
C167       C3812   1.489       .  S
N168        N169   1.306       .  A
N168        N174   1.316       .  A
N168       Mn176   2.130       .  S
N169        C179   1.334       .  A
N170        N171   1.338       .  A
N170        N172   1.318       .  A
N170       Mn177   2.315       .  S
N171        C180   1.376       .  A
N172        N173   1.310       .  A
N172       Mn176   2.136       .  S
N173        C180   1.336       .  A
N174        N175   1.340       .  A
N174       Mn177   2.309       .  S
N175        C179   1.377       .  A
Mn176      Cl178   2.510       .  S
Mn177      Cl178   2.568       .  S
C179       C3825   1.500       .  S
C180       C3835   1.497       .  S
N181        N182   1.320       .  A
N181        N187   1.310       .  A
N181       Mn210   2.189       .  S
N182        C189   1.354       .  A
N183        N185   1.310       .  A
N183        N184   1.314       .  A
N183       Mn199   2.169       .  S
N184        C190   1.349       .  A
N185        N186   1.321       .  A
N185       Mn210   2.186       .  S
N186        C190   1.355       .  A
N187        N188   1.315       .  A
N187       Mn199   2.169       .  S
N188        C189   1.351       .  A
C189       C3915   1.469       .  S
C190       C3795   1.470       .  S
N191        N197   1.310       .  A
N191        N192   1.319       .  A
N191       Mn221   2.174       .  S
N192        C200   1.352       .  A
N193        N194   1.316       .  A
N193        N195   1.309       .  A
N193       Mn199   2.172       .  S
N194        C201   1.352       .  A
N195        N196   1.319       .  A
N195       Mn221   2.177       .  S
N196        C201   1.351       .  A
N197        N198   1.315       .  A
N197       Mn199   2.174       .  S
N198        C200   1.351       .  A
Mn199      Cl223   2.547       .  S
C200       C3865   1.464       .  S
C201       C3952   1.464       .  S
N202        N203   1.313       .  A
N202        N208   1.320       .  A
N202       Mn210   2.156       .  S
N203        C211   1.340       .  A
N204        N206   1.318       .  A
N204        N205   1.342       .  A
N204       Mn222   2.329       .  S
N205        C212   1.379       .  A
N206        N207   1.308       .  A
N206       Mn210   2.137       .  S
N207        C212   1.334       .  A
N208        N209   1.336       .  A
N208       Mn222   2.311       .  S
N209        C211   1.373       .  A
Mn210      Cl223   2.522       .  S
C211       C3782   1.501       .  S
C212       C3762   1.508       .  S
N213        N214   1.306       .  A
N213        N219   1.318       .  A
N213       Mn221   2.130       .  S
N214        C224   1.333       .  A
N215        N216   1.340       .  A
N215        N217   1.318       .  A
N215       Mn222   2.330       .  S
N216        C225   1.378       .  A
N217        N218   1.312       .  A
N217       Mn221   2.142       .  S
N218        C225   1.337       .  A
N219        N220   1.342       .  A
N219       Mn222   2.323       .  S
N220        C224   1.379       .  A
Mn221      Cl223   2.520       .  S
Mn222      Cl223   2.579       .  S
C224       C3772   1.504       .  S
C225       C3802   1.509       .  S
N226        N227   1.319       .  A
N226        N232   1.309       .  A
N226       Mn255   2.173       .  S
N227        C234   1.352       .  A
N228        N230   1.309       .  A
N228        N229   1.315       .  A
N228       Mn244   2.171       .  S
N229        C235   1.350       .  A
N230        N231   1.318       .  A
N230       Mn255   2.171       .  S
N231        C235   1.351       .  A
N232        N233   1.315       .  A
N232       Mn244   2.171       .  S
N233        C234   1.351       .  A
C234       C4032   1.464       .  S
C235       C3845   1.460       .  S
N236        N242   1.309       .  A
N236        N237   1.320       .  A
N236       Mn266   2.184       .  S
N237        C245   1.354       .  A
N238        N239   1.316       .  A
N238        N240   1.309       .  A
N238       Mn244   2.177       .  S
N239        C246   1.352       .  A
N240        N241   1.320       .  A
N240       Mn266   2.175       .  S
N241        C246   1.352       .  A
N242        N243   1.315       .  A
N242       Mn244   2.171       .  S
N243        C245   1.351       .  A
Mn244      Cl268   2.559       .  S
C245       C3792   1.470       .  S
C246       C3885   1.469       .  S
N247        N248   1.310       .  A
N247        N253   1.319       .  A
N247       Mn255   2.142       .  S
N248        C256   1.337       .  A
N249        N251   1.318       .  A
N249        N250   1.340       .  A
N249       Mn267   2.324       .  S
N250        C257   1.378       .  A
N251        N252   1.309       .  A
N251       Mn255   2.135       .  S
N252        C257   1.335       .  A
N253        N254   1.339       .  A
N253       Mn267   2.323       .  S
N254        C256   1.377       .  A
Mn255      Cl268   2.518       .  S
C256       C3742   1.505       .  S
C257       C3732   1.503       .  S
N258        N259   1.309       .  A
N258        N264   1.319       .  A
N258       Mn266   2.144       .  S
N259        C269   1.336       .  A
N260        N261   1.339       .  A
N260        N262   1.319       .  A
N260       Mn267   2.318       .  S
N261        C270   1.376       .  A
N262        N263   1.308       .  A
N262       Mn266   2.135       .  S
N263        C270   1.335       .  A
N264        N265   1.340       .  A
N264       Mn267   2.321       .  S
N265        C269   1.377       .  A
Mn266      Cl268   2.515       .  S
Mn267      Cl268   2.570       .  S
C269       C3722   1.507       .  S
C270       C3752   1.501       .  S
N271        N272   1.341       .  A
N271        N277   1.316       .  A
N271       Mn300   2.315       .  S
N272        C279   1.378       .  A
N273        N275   1.319       .  A
N273        N274   1.310       .  A
N273       Mn289   2.144       .  S
N274        C280   1.337       .  A
N275        N276   1.340       .  A
N275       Mn300   2.326       .  S
N276        C280   1.378       .  A
N277        N278   1.307       .  A
N277       Mn289   2.127       .  S
N278        C279   1.334       .  A
C279       C3712   1.504       .  S
C280       C3662   1.507       .  S
N281        N287   1.308       .  A
N281        N282   1.316       .  A
N281       Mn311   2.175       .  S
N282        C290   1.352       .  A
N283        N284   1.319       .  A
N283        N285   1.309       .  A
N283       Mn289   2.178       .  S
N284        C291   1.352       .  A
N285        N286   1.315       .  A
N285       Mn311   2.167       .  S
N286        C291   1.351       .  A
N287        N288   1.318       .  A
N287       Mn289   2.165       .  S
N288        C290   1.350       .  A
Mn289      Cl313   2.519       .  S
C290       C3652   1.464       .  S
C291       C3702   1.465       .  S
N292        N293   1.337       .  A
N292        N298   1.319       .  A
N292       Mn300   2.305       .  S
N293        C301   1.373       .  A
N294        N296   1.319       .  A
N294        N295   1.309       .  A
N294       Mn312   2.142       .  S
N295        C302   1.335       .  A
N296        N297   1.338       .  A
N296       Mn300   2.312       .  S
N297        C302   1.375       .  A
N298        N299   1.310       .  A
N298       Mn312   2.140       .  S
N299        C301   1.336       .  A
Mn300      Cl313   2.566       .  S
C301       C3642   1.493       .  S
C302       C3682   1.495       .  S
N303        N304   1.315       .  A
N303        N309   1.308       .  A
N303       Mn311   2.173       .  S
N304        C314   1.352       .  A
N305        N306   1.320       .  A
N305        N307   1.310       .  A
N305       Mn312   2.181       .  S
N306        C315   1.354       .  A
N307        N308   1.312       .  A
N307       Mn311   2.163       .  S
N308        C315   1.349       .  A
N309        N310   1.319       .  A
N309       Mn312   2.172       .  S
N310        C314   1.351       .  A
Mn311      Cl313   2.554       .  S
Mn312      Cl313   2.517       .  S
C314       C3692   1.467       .  S
C315       C3672   1.464       .  S
N316        N317   1.319       .  A
N316        N322   1.308       .  A
N316       Mn345   2.177       .  S
N317        C324   1.353       .  A
N318        N320   1.309       .  A
N318        N319   1.316       .  A
N318       Mn334   2.173       .  S
N319        C325   1.352       .  A
N320        N321   1.319       .  A
N320       Mn345   2.179       .  S
N321        C325   1.353       .  A
N322        N323   1.314       .  A
N322       Mn334   2.163       .  S
N323        C324   1.350       .  A
C324       C3602   1.462       .  S
C325       C3595   1.468       .  S
N326        N332   1.309       .  A
N326        N327   1.317       .  A
N326       Mn356   2.171       .  S
N327        C335   1.351       .  A
N328        N329   1.315       .  A
N328        N330   1.309       .  A
N328       Mn334   2.169       .  S
N329        C336   1.351       .  A
N330        N331   1.319       .  A
N330       Mn356   2.180       .  S
N331        C336   1.353       .  A
N332        N333   1.315       .  A
N332       Mn334   2.161       .  S
N333        C335   1.350       .  A
Mn334      Cl358   2.563       .  S
C335       C3612   1.461       .  S
C336       C3705   1.466       .  S
N337        N338   1.308       .  A
N337        N343   1.319       .  A
N337       Mn345   2.133       .  S
N338        C346   1.334       .  A
N339        N341   1.320       .  A
N339        N340   1.338       .  A
N339       Mn357   2.316       .  S
N340        C347   1.375       .  A
N341        N342   1.310       .  A
N341       Mn345   2.141       .  S
N342        C347   1.335       .  A
N343        N344   1.340       .  A
N343       Mn357   2.330       .  S
N344        C346   1.378       .  A
Mn345      Cl358   2.515       .  S
C346       C3582   1.505       .  S
C347       C3575   1.494       .  S
N348        N349   1.309       .  A
N348        N354   1.318       .  A
N348       Mn356   2.139       .  S
N349        C359   1.336       .  A
N350        N351   1.340       .  A
N350        N352   1.319       .  A
N350       Mn357   2.324       .  S
N351        C360   1.377       .  A
N352        N353   1.311       .  A
N352       Mn356   2.148       .  S
N353        C360   1.337       .  A
N354        N355   1.341       .  A
N354       Mn357   2.325       .  S
N355        C359   1.378       .  A
Mn356      Cl358   2.513       .  S
Mn357      Cl358   2.570       .  S
C359       C3632   1.508       .  S
C360       C3625   1.507       .  S
N361        N362   1.320       .  A
N361        N367   1.309       .  A
N361       Mn390   2.178       .  S
N362        C369   1.353       .  A
N363        N365   1.309       .  A
N363        N364   1.314       .  A
N363       Mn379   2.164       .  S
N364        C370   1.350       .  A
N365        N366   1.317       .  A
N365       Mn390   2.170       .  S
N366        C370   1.351       .  A
N367        N368   1.313       .  A
N367       Mn379   2.167       .  S
N368        C369   1.350       .  A
C369       C3655   1.464       .  S
C370       C3615   1.461       .  S
N371        N377   1.308       .  A
N371        N372   1.318       .  A
N371       Mn401   2.169       .  S
N372        C380   1.352       .  A
N373        N374   1.315       .  A
N373        N375   1.309       .  A
N373       Mn379   2.169       .  S
N374        C381   1.351       .  A
N375        N376   1.320       .  A
N375       Mn401   2.186       .  S
N376        C381   1.354       .  A
N377        N378   1.314       .  A
N377       Mn379   2.167       .  S
N378        C380   1.351       .  A
Mn379      Cl403   2.557       .  S
C380       C3552   1.464       .  S
C381       C3522   1.469       .  S
N382        N383   1.309       .  A
N382        N388   1.318       .  A
N382       Mn390   2.139       .  S
N383        C391   1.335       .  A
N384        N386   1.319       .  A
N384        N385   1.336       .  A
N384       Mn402   2.308       .  S
N385        C392   1.374       .  A
N386        N387   1.311       .  A
N386       Mn390   2.140       .  S
N387        C392   1.336       .  A
N388        N389   1.340       .  A
N388       Mn402   2.321       .  S
N389        C391   1.377       .  A
Mn390      Cl403   2.519       .  S
C391       C3565   1.505       .  S
C392       C3512   1.491       .  S
N393        N394   1.309       .  A
N393        N399   1.319       .  A
N393       Mn401   2.133       .  S
N394        C404   1.334       .  A
N395        N396   1.339       .  A
N395        N397   1.319       .  A
N395       Mn402   2.317       .  S
N396        C405   1.376       .  A
N397        N398   1.311       .  A
N397       Mn401   2.147       .  S
N398        C405   1.338       .  A
N399        N400   1.337       .  A
N399       Mn402   2.313       .  S
N400        C404   1.375       .  A
Mn401      Cl403   2.518       .  S
Mn402      Cl403   2.565       .  S
C404       C3532   1.492       .  S
C405       C3542   1.504       .  S
N406        N407   1.322       .  A
N406        N412   1.309       .  A
N406       Mn435   2.189       .  S
N407        C414   1.355       .  A
N408        N410   1.310       .  A
N408        N409   1.315       .  A
N408       Mn424   2.170       .  S
N409        C415   1.350       .  A
N410        N411   1.318       .  A
N410       Mn435   2.176       .  S
N411        C415   1.351       .  A
N412        N413   1.312       .  A
N412       Mn424   2.158       .  S
N413        C414   1.347       .  A
C414       C3695   1.467   1_455  S
C415       C3485   1.462       .  S
N416        N422   1.308       .  A
N416        N417   1.319       .  A
N416       Mn446   2.171       .  S
N417        C425   1.352       .  A
N418        N419   1.317       .  A
N418        N420   1.309       .  A
N418       Mn424   2.178       .  S
N419        C426   1.353       .  A
N420        N421   1.316       .  A
N420       Mn446   2.162       .  S
N421        C426   1.349       .  A
N422        N423   1.314       .  A
N422       Mn424   2.164       .  S
N423        C425   1.351       .  A
Mn424      Cl448   2.560       .  S
C425       C3502   1.463       .  S
C426       C3605   1.461       .  S
N427        N428   1.311       .  A
N427        N433   1.319       .  A
N427       Mn435   2.148       .  S
N428        C436   1.337       .  A
N429        N431   1.320       .  A
N429        N430   1.337       .  A
N429       Mn447   2.318       .  S
N430        C437   1.374       .  A
N431        N432   1.311       .  A
N431       Mn435   2.145       .  S
N432        C437   1.337       .  A
N433        N434   1.339       .  A
N433       Mn447   2.311       .  S
N434        C436   1.375       .  A
Mn435      Cl448   2.519       .  S
C436       C3472   1.499       .  S
C437       C3452   1.494       .  S
N438        N439   1.308       .  A
N438        N444   1.318       .  A
N438       Mn446   2.131       .  S
N439        C449   1.334       .  A
N440        N441   1.337       .  A
N440        N442   1.318       .  A
N440       Mn447   2.306       .  S
N441        C450   1.375       .  A
N442        N443   1.307       .  A
N442       Mn446   2.129       .  S
N443        C450   1.334       .  A
N444        N445   1.338       .  A
N444       Mn447   2.307       .  S
N445        C449   1.375       .  A
Mn446      Cl448   2.513       .  S
Mn447      Cl448   2.566       .  S
C449       C3465   1.494       .  S
C450       C3492   1.493       .  S
N451        N452   1.320       .  A
N451        N457   1.310       .  A
N451       Mn480   2.188       .  S
N452        C459   1.354       .  A
N453        N455   1.310       .  A
N453        N454   1.315       .  A
N453       Mn469   2.170       .  S
N454        C460   1.351       .  A
N455        N456   1.318       .  A
N455       Mn480   2.178       .  S
N456        C460   1.352       .  A
N457        N458   1.315       .  A
N457       Mn469   2.167       .  S
N458        C459   1.349       .  A
C459       C3592   1.468       .  S
C460       C3505   1.464       .  S
N461        N467   1.309       .  A
N461        N462   1.319       .  A
N461       Mn491   2.179       .  S
N462        C470   1.351       .  A
N463        N464   1.313       .  A
N463        N465   1.309       .  A
N463       Mn469   2.168       .  S
N464        C471   1.349       .  A
N465        N466   1.320       .  A
N465       Mn491   2.172       .  S
N466        C471   1.353       .  A
N467        N468   1.317       .  A
N467       Mn469   2.175       .  S
N468        C470   1.353       .  A
Mn469      Cl493   2.548       .  S
C470       C3432   1.466       .  S
C471       C3555   1.463       .  S
N472        N473   1.312       .  A
N472        N478   1.319       .  A
N472       Mn480   2.148       .  S
N473        C481   1.338       .  A
N474        N476   1.319       .  A
N474        N475   1.340       .  A
N474       Mn492   2.323       .  S
N475        C482   1.377       .  A
N476        N477   1.309       .  A
N476       Mn480   2.139       .  S
N477        C482   1.335       .  A
N478        N479   1.338       .  A
N478       Mn492   2.313       .  S
N479        C481   1.375       .  A
Mn480      Cl493   2.517       .  S
C481       C3445   1.498       .  S
C482       C3402   1.505       .  S
N483        N484   1.309       .  A
N483        N489   1.318       .  A
N483       Mn491   2.137       .  S
N484        C494   1.336       .  A
N485        N486   1.342       .  A
N485        N487   1.317       .  A
N485       Mn492   2.323       .  S
N486        C495   1.379       .  A
N487        N488   1.304       .  A
N487       Mn491   2.124       .  S
N488        C495   1.331       .  A
N489        N490   1.339       .  A
N489       Mn492   2.320       .  S
N490        C494   1.376       .  A
Mn491      Cl493   2.515       .  S
Mn492      Cl493   2.582       .  S
C494       C3412   1.504       .  S
C495       C3425   1.501       .  S
N496        N497   1.318       .  A
N496        N502   1.309       .  A
N496       Mn525   2.168       .  S
N497        C504   1.350       .  A
N498        N500   1.309       .  A
N498        N499   1.315       .  A
N498       Mn514   2.171       .  S
N499        C505   1.351       .  A
N500        N501   1.321       .  A
N500       Mn525   2.184       .  S
N501        C505   1.354       .  A
N502        N503   1.318       .  A
N502       Mn514   2.187       .  S
N503        C504   1.354       .  A
C504       C3525   1.467       .  S
C505       C3435   1.467       .  S
N506        N512   1.311       .  A
N506        N507   1.317       .  A
N506       Mn536   2.178       .  S
N507        C515   1.351       .  A
N508        N509   1.314       .  A
N508        N510   1.310       .  A
N508       Mn514   2.166       .  S
N509        C516   1.350       .  A
N510        N511   1.317       .  A
N510       Mn536   2.169       .  S
N511        C516   1.350       .  A
N512        N513   1.316       .  A
N512       Mn514   2.175       .  S
N513        C515   1.352       .  A
Mn514      Cl538   2.562       .  S
C515       C3482   1.465       .  S
C516       C3675   1.462       .  S
N517        N518   1.307       .  A
N517        N523   1.319       .  A
N517       Mn525   2.130       .  S
N518        C526   1.333       .  A
N519        N521   1.319       .  A
N519        N520   1.338       .  A
N519       Mn537   2.315       .  S
N520        C527   1.375       .  A
N521        N522   1.310       .  A
N521       Mn525   2.141       .  S
N522        C527   1.337       .  A
N523        N524   1.338       .  A
N523       Mn537   2.314       .  S
N524        C526   1.376       .  A
Mn525      Cl538   2.520       .  S
C526       C3392   1.492       .  S
C527       C3362   1.499       .  S
N528        N529   1.314       .  A
N528        N534   1.318       .  A
N528       Mn536   2.157       .  S
N529        C539   1.340       .  A
N530        N531   1.340       .  A
N530        N532   1.318       .  A
N530       Mn537   2.315       .  S
N531        C540   1.376       .  A
N532        N533   1.311       .  A
N532       Mn536   2.151       .  S
N533        C540   1.338       .  A
N534        N535   1.337       .  A
N534       Mn537   2.313       .  S
N535        C539   1.375       .  A
Mn536      Cl538   2.516       .  S
Mn537      Cl538   2.569       .  S
C539       C3372   1.506       .  S
C540       C3382   1.505       .  S
N541        N542   1.317       .  A
N541        N547   1.308       .  A
N541       Mn570   2.174       .  S
N542        C549   1.353       .  A
N543        N545   1.309       .  A
N543        N544   1.317       .  A
N543       Mn559   2.168       .  S
N544        C550   1.350       .  A
N545        N546   1.317       .  A
N545       Mn570   2.176       .  S
N546        C550   1.353       .  A
N547        N548   1.317       .  A
N547       Mn559   2.170       .  S
N548        C549   1.350       .  A
C549       C3342   1.464       .  S
C550       C3322   1.466       .  S
N551        N557   1.318       .  A
N551        N552   1.338       .  A
N551       Mn581   2.315       .  S
N552        C560   1.376       .  A
N553        N554   1.307       .  A
N553        N555   1.317       .  A
N553       Mn559   2.133       .  S
N554        C561   1.334       .  A
N555        N556   1.341       .  A
N555       Mn581   2.320       .  S
N556        C561   1.378       .  A
N557        N558   1.310       .  A
N557       Mn559   2.139       .  S
N558        C560   1.337       .  A
Mn559      Cl583   2.507       .  S
C560       C3332   1.502       .  S
C561       C3352   1.504       .  S
N562        N563   1.315       .  A
N562        N568   1.309       .  A
N562       Mn570   2.172       .  S
N563        C571   1.351       .  A
N564        N566   1.309       .  A
N564        N565   1.318       .  A
N564       Mn582   2.174       .  S
N565        C572   1.352       .  A
N566        N567   1.315       .  A
N566       Mn570   2.169       .  S
N567        C572   1.351       .  A
N568        N569   1.318       .  A
N568       Mn582   2.174       .  S
N569        C571   1.351       .  A
Mn570      Cl583   2.567       .  S
C571       C3315   1.465       .  S
C572       C3305   1.462       .  S
N573        N574   1.339       .  A
N573        N579   1.318       .  A
N573       Mn581   2.311       .  S
N574        C584   1.376       .  A
N575        N576   1.310       .  A
N575        N577   1.319       .  A
N575       Mn582   2.142       .  S
N576        C585   1.336       .  A
N577        N578   1.338       .  A
N577       Mn581   2.318       .  S
N578        C585   1.375       .  A
N579        N580   1.308       .  A
N579       Mn582   2.137       .  S
N580        C584   1.335       .  A
Mn581      Cl583   2.573       .  S
Mn582      Cl583   2.508       .  S
C584       C3282   1.498       .  S
C585       C3295   1.498       .  S
N586        N587   1.321       .  A
N586        N592   1.310       .  A
N586       Mn615   2.184       .  S
N587        C594   1.354       .  A
N588        N590   1.308       .  A
N588        N589   1.314       .  A
N588       Mn604   2.165       .  S
N589        C595   1.351       .  A
N590        N591   1.318       .  A
N590       Mn615   2.172       .  S
N591        C595   1.352       .  A
N592        N593   1.317       .  A
N592       Mn604   2.188       .  S
N593        C594   1.353       .  A
C594       C3262   1.473       .  S
C595       C3232   1.462       .  S
N596        N602   1.310       .  A
N596        N597   1.317       .  A
N596       Mn626   2.173       .  S
N597        C605   1.350       .  A
N598        N599   1.312       .  A
N598        N600   1.310       .  A
N598       Mn604   2.156       .  S
N599        C606   1.347       .  A
N600        N601   1.322       .  A
N600       Mn626   2.195       .  S
N601        C606   1.356       .  A
N602        N603   1.317       .  A
N602       Mn604   2.177       .  S
N603        C605   1.353       .  A
Mn604      Cl628   2.546       .  S
C605       C3222   1.466       .  S
C606       C3325   1.467       .  S
N607        N608   1.306       .  A
N607        N613   1.317       .  A
N607       Mn615   2.128       .  S
N608        C616   1.332       .  A
N609        N611   1.318       .  A
N609        N610   1.339       .  A
N609       Mn627   2.313       .  S
N610        C617   1.376       .  A
N611        N612   1.306       .  A
N611       Mn615   2.131       .  S
N612        C617   1.335       .  A
N613        N614   1.342       .  A
N613       Mn627   2.321       .  S
N614        C616   1.379       .  A
Mn615      Cl628   2.512       .  S
C616       C3242   1.505       .  S
C617       C3252   1.498       .  S
N618        N619   1.311       .  A
N618        N624   1.319       .  A
N618       Mn626   2.144       .  S
N619        C629   1.338       .  A
N620        N621   1.338       .  A
N620        N622   1.319       .  A
N620       Mn627   2.313       .  S
N621        C630   1.375       .  A
N622        N623   1.313       .  A
N622       Mn626   2.157       .  S
N623        C630   1.340       .  A
N624        N625   1.338       .  A
N624       Mn627   2.319       .  S
N625        C629   1.376       .  A
Mn626      Cl628   2.520       .  S
Mn627      Cl628   2.584       .  S
C629       C3275   1.502       .  S
C630       C3212   1.505       .  S
N631        N632   1.320       .  A
N631        N637   1.309       .  A
N631       Mn660   2.179       .  S
N632        C639   1.352       .  A
N633        N635   1.309       .  A
N633        N634   1.314       .  A
N633       Mn649   2.161       .  S
N634        C640   1.349       .  A
N635        N636   1.320       .  A
N635       Mn660   2.179       .  S
N636        C640   1.353       .  A
N637        N638   1.314       .  A
N637       Mn649   2.165       .  S
N638        C639   1.350       .  A
C639       C3345   1.463       .  S
C640       C3225   1.463       .  S
N641        N647   1.308       .  A
N641        N642   1.318       .  A
N641       Mn671   2.171       .  S
N642        C650   1.352       .  A
N643        N644   1.314       .  A
N643        N645   1.308       .  A
N643       Mn649   2.163       .  S
N644        C651   1.351       .  A
N645        N646   1.318       .  A
N645       Mn671   2.174       .  S
N646        C651   1.352       .  A
N647        N648   1.315       .  A
N647       Mn649   2.168       .  S
N648        C650   1.352       .  A
Mn649      Cl673   2.561       .  S
C650       C3152   1.466       .  S
C651       C3192   1.464       .  S
N652        N653   1.308       .  A
N652        N658   1.318       .  A
N652       Mn660   2.135       .  S
N653        C661   1.335       .  A
N654        N656   1.319       .  A
N654        N655   1.340       .  A
N654       Mn672   2.320       .  S
N655        C662   1.377       .  A
N656        N657   1.308       .  A
N656       Mn660   2.140       .  S
N657        C662   1.335       .  A
N658        N659   1.340       .  A
N658       Mn672   2.321       .  S
N659        C661   1.377       .  A
Mn660      Cl673   2.512       .  S
C661       C3172   1.503       .  S
C662       C3202   1.502       .  S
N663        N664   1.309       .  A
N663        N669   1.319       .  A
N663       Mn671   2.136       .  S
N664        C674   1.335       .  A
N665        N666   1.337       .  A
N665        N667   1.319       .  A
N665       Mn672   2.310       .  S
N666        C675   1.375       .  A
N667        N668   1.309       .  A
N667       Mn671   2.136       .  S
N668        C675   1.335       .  A
N669        N670   1.338       .  A
N669       Mn672   2.313       .  S
N670        C674   1.376       .  A
Mn671      Cl673   2.507       .  S
Mn672      Cl673   2.572       .  S
C674       C3182   1.498       .  S
C675       C3162   1.497       .  S
N676        N677   1.319       .  A
N676        N682   1.310       .  A
N676       Mn705   2.180       .  S
N677        C684   1.352       .  A
N678        N680   1.309       .  A
N678        N679   1.315       .  A
N678       Mn694   2.172       .  S
N679        C685   1.352       .  A
N680        N681   1.316       .  A
N680       Mn705   2.158       .  S
N681        C685   1.349       .  A
N682        N683   1.314       .  A
N682       Mn694   2.168       .  S
N683        C684   1.351       .  A
C684       C3312   1.465   1_455  S
C685       C3122   1.458       .  S
N686        N692   1.309       .  A
N686        N687   1.319       .  A
N686       Mn716   2.183       .  S
N687        C695   1.354       .  A
N688        N689   1.315       .  A
N688        N690   1.310       .  A
N688       Mn694   2.176       .  S
N689        C696   1.351       .  A
N690        N691   1.322       .  A
N690       Mn716   2.191       .  S
N691        C696   1.355       .  A
N692        N693   1.313       .  A
N692       Mn694   2.163       .  S
N693        C695   1.350       .  A
Mn694      Cl718   2.542       .  S
C695       C3145   1.465       .  S
C696       C3265   1.472   1_455  S
N697        N698   1.310       .  A
N697        N703   1.317       .  A
N697       Mn705   2.147       .  S
N698        C706   1.337       .  A
N699        N701   1.317       .  A
N699        N700   1.338       .  A
N699       Mn717   2.315       .  S
N700        C707   1.376       .  A
N701        N702   1.308       .  A
N701       Mn705   2.126       .  S
N702        C707   1.334       .  A
N703        N704   1.339       .  A
N703       Mn717   2.310       .  S
N704        C706   1.376       .  A
Mn705      Cl718   2.517       .  S
C706       C3112   1.503       .  S
C707       C3092   1.497       .  S
N708        N709   1.311       .  A
N708        N714   1.320       .  A
N708       Mn716   2.147       .  S
N709        C719   1.338       .  A
N710        N711   1.338       .  A
N710        N712   1.318       .  A
N710       Mn717   2.305       .  S
N711        C720   1.374       .  A
N712        N713   1.309       .  A
N712       Mn716   2.137       .  S
N713        C720   1.335       .  A
N714        N715   1.336       .  A
N714       Mn717   2.309       .  S
N715        C719   1.373       .  A
Mn716      Cl718   2.524       .  S
Mn717      Cl718   2.575       .  S
C719       C3102   1.496       .  S
C720       C3132   1.492       .  S
N721        N722   1.317       .  A
N721        N727   1.308       .  A
N721       Mn750   2.170       .  S
N722        C729   1.350       .  A
N723        N725   1.310       .  A
N723        N724   1.316       .  A
N723       Mn739   2.183       .  S
N724        C730   1.353       .  A
N725        N726   1.319       .  A
N725       Mn750   2.181       .  S
N726        C730   1.353       .  A
N727        N728   1.316       .  A
N727       Mn739   2.169       .  S
N728        C729   1.352       .  A
C729       C3195   1.464   1_545  S
C730       C3082   1.469       .  S
N731        N737   1.309       .  A
N731        N732   1.318       .  A
N731       Mn761   2.164       .  S
N732        C740   1.349       .  A
N733        N734   1.317       .  A
N733        N735   1.310       .  A
N733       Mn739   2.180       .  S
N734        C741   1.353       .  A
N735        N736   1.316       .  A
N735       Mn761   2.157       .  S
N736        C741   1.347       .  A
N737        N738   1.314       .  A
N737       Mn739   2.167       .  S
N738        C740   1.350       .  A
Mn739      Cl763   2.560       .  S
C740       C3125   1.457       .  S
C741       C3302   1.459       .  S
N742        N743   1.310       .  A
N742        N748   1.319       .  A
N742       Mn750   2.139       .  S
N743        C751   1.336       .  A
N744        N746   1.319       .  A
N744        N745   1.335       .  A
N744       Mn762   2.301       .  S
N745        C752   1.373       .  A
N746        N747   1.309       .  A
N746       Mn750   2.141       .  S
N747        C752   1.336       .  A
N748        N749   1.336       .  A
N748       Mn762   2.305       .  S
N749        C751   1.373       .  A
Mn750      Cl763   2.514       .  S
C751       C3072   1.492       .  S
C752       C3052   1.494       .  S
N753        N754   1.310       .  A
N753        N759   1.316       .  A
N753       Mn761   2.136       .  S
N754        C764   1.337       .  A
N755        N756   1.339       .  A
N755        N757   1.318       .  A
N755       Mn762   2.317       .  S
N756        C765   1.377       .  A
N757        N758   1.308       .  A
N757       Mn761   2.132       .  S
N758        C765   1.335       .  A
N759        N760   1.338       .  A
N759       Mn762   2.308       .  S
N760        C764   1.375       .  A
Mn761      Cl763   2.516       .  S
Mn762      Cl763   2.563       .  S
C764       C3045   1.500       .  S
C765       C3062   1.499       .  S
N766        N767   1.318       .  A
N766        N772   1.310       .  A
N766       Mn795   2.171       .  S
N767        C774   1.350       .  A
N768        N770   1.308       .  A
N768        N769   1.313       .  A
N768       Mn784   2.157       .  S
N769        C775   1.349       .  A
N770        N771   1.319       .  A
N770       Mn795   2.176       .  S
N771        C775   1.352       .  A
N772        N773   1.316       .  A
N772       Mn784   2.176       .  S
N773        C774   1.352       .  A
C774       C3235   1.462       .  S
C775       C3142   1.463       .  S
N776        N782   1.310       .  A
N776        N777   1.320       .  A
N776       Mn806   2.181       .  S
N777        C785   1.353       .  A
N778        N779   1.312       .  A
N778        N780   1.309       .  A
N778       Mn784   2.156       .  S
N779        C786   1.348       .  A
N780        N781   1.321       .  A
N780       Mn806   2.187       .  S
N781        C786   1.355       .  A
N782        N783   1.315       .  A
N782       Mn784   2.174       .  S
N783        C785   1.351       .  A
Mn784      Cl808   2.556       .  S
C785       C3085   1.469       .  S
C786       C3155   1.467       .  S
N787        N788   1.308       .  A
N787        N793   1.318       .  A
N787       Mn795   2.132       .  S
N788        C796   1.334       .  A
N789        N791   1.319       .  A
N789        N790   1.339       .  A
N789       Mn807   2.325       .  S
N790        C797   1.376       .  A
N791        N792   1.313       .  A
N791       Mn795   2.144       .  S
N792        C797   1.337       .  A
N793        N794   1.342       .  A
N793       Mn807   2.332       .  S
N794        C796   1.379       .  A
Mn795      Cl808   2.527       .  S
C796       C3022   1.509       .  S
C797       C3002   1.500       .  S
N798        N799   1.310       .  A
N798        N804   1.319       .  A
N798       Mn806   2.147       .  S
N799        C809   1.338       .  A
N800        N801   1.341       .  A
N800        N802   1.319       .  A
N800       Mn807   2.327       .  S
N801        C810   1.378       .  A
N802        N803   1.310       .  A
N802       Mn806   2.148       .  S
N803        C810   1.337       .  A
N804        N805   1.339       .  A
N804       Mn807   2.317       .  S
N805        C809   1.376       .  A
Mn806      Cl808   2.522       .  S
Mn807      Cl808   2.561       .  S
C809       C3012   1.502       .  S
C810       C3032   1.510       .  S
N811        N812   1.318       .  A
N811        N817   1.309       .  A
N811       Mn840   2.182       .  S
N812        C819   1.354       .  A
N813        N815   1.309       .  A
N813        N814   1.318       .  A
N813       Mn829   2.172       .  S
N814        C820   1.351       .  A
N815        N816   1.316       .  A
N815       Mn840   2.175       .  S
N816        C820   1.352       .  A
N817        N818   1.315       .  A
N817       Mn829   2.161       .  S
N818        C819   1.348       .  A
C819       C2995   1.464       .  S
C820       C2975   1.466       .  S
N821        N827   1.318       .  A
N821        N822   1.339       .  A
N821       Mn851   2.321       .  S
N822        C830   1.377       .  A
N823        N824   1.310       .  A
N823        N825   1.318       .  A
N823       Mn829   2.140       .  S
N824        C831   1.336       .  A
N825        N826   1.340       .  A
N825       Mn851   2.324       .  S
N826        C831   1.378       .  A
N827        N828   1.310       .  A
N827       Mn829   2.136       .  S
N828        C830   1.336       .  A
Mn829      Cl853   2.509       .  S
C830       C2955   1.503       .  S
C831       C3115   1.508       .  S
N832        N833   1.316       .  A
N832        N838   1.309       .  A
N832       Mn840   2.181       .  S
N833        C841   1.353       .  A
N834        N836   1.309       .  A
N834        N835   1.320       .  A
N834       Mn852   2.172       .  S
N835        C842   1.351       .  A
N836        N837   1.314       .  A
N836       Mn840   2.171       .  S
N837        C842   1.351       .  A
N838        N839   1.320       .  A
N838       Mn852   2.179       .  S
N839        C841   1.352       .  A
Mn840      Cl853   2.566       .  S
C841       C2962   1.469       .  S
C842       C2982   1.464       .  S
N843        N844   1.339       .  A
N843        N849   1.319       .  A
N843       Mn851   2.323       .  S
N844        C854   1.377       .  A
N845        N846   1.306       .  A
N845        N847   1.318       .  A
N845       Mn852   2.130       .  S
N846        C855   1.333       .  A
N847        N848   1.341       .  A
N847       Mn851   2.324       .  S
N848        C855   1.378       .  A
N849        N850   1.309       .  A
N849       Mn852   2.138       .  S
N850        C854   1.335       .  A
Mn851      Cl853   2.574       .  S
Mn852      Cl853   2.512       .  S
C854       C3065   1.502       .  S
C855       C2942   1.504       .  S
N856        N857   1.314       .  A
N856        N862   1.309       .  A
N856       Mn885   2.166       .  S
N857        C864   1.350       .  A
N858        N860   1.309       .  A
N858        N859   1.321       .  A
N858       Mn874   2.179       .  S
N859        C865   1.354       .  A
N860        N861   1.313       .  A
N860       Mn885   2.163       .  S
N861        C865   1.349       .  A
N862        N863   1.318       .  A
N862       Mn874   2.174       .  S
N863        C864   1.352       .  A
C864       C2935   1.461       .  S
C865       C2925   1.466       .  S
N866        N872   1.319       .  A
N866        N867   1.339       .  A
N866       Mn896   2.316       .  S
N867        C875   1.376       .  A
N868        N869   1.309       .  A
N868        N870   1.318       .  A
N868       Mn874   2.143       .  S
N869        C876   1.337       .  A
N870        N871   1.338       .  A
N870       Mn896   2.305       .  S
N871        C876   1.374       .  A
N872        N873   1.309       .  A
N872       Mn874   2.140       .  S
N873        C875   1.336       .  A
Mn874      Cl898   2.517       .  S
C875       C2895   1.501       .  S
C876       C3185   1.496       .  S
N877        N878   1.315       .  A
N877        N883   1.309       .  A
N877       Mn885   2.174       .  S
N878        C886   1.352       .  A
N879        N881   1.309       .  A
N879        N880   1.321       .  A
N879       Mn897   2.191       .  S
N880        C887   1.355       .  A
N881        N882   1.315       .  A
N881       Mn885   2.165       .  S
N882        C887   1.350       .  A
N883        N884   1.317       .  A
N883       Mn897   2.162       .  S
N884        C886   1.350       .  A
Mn885      Cl898   2.554       .  S
C886       C2905   1.463       .  S
C887       C2915   1.468       .  S
N888        N889   1.339       .  A
N888        N894   1.317       .  A
N888       Mn896   2.314       .  S
N889        C899   1.376       .  A
N890        N891   1.312       .  A
N890        N892   1.319       .  A
N890       Mn897   2.151       .  S
N891        C900   1.338       .  A
N892        N893   1.339       .  A
N892       Mn896   2.321       .  S
N893        C900   1.377       .  A
N894        N895   1.306       .  A
N894       Mn897   2.123       .  S
N895        C899   1.332       .  A
Mn896      Cl898   2.563       .  S
Mn897      Cl898   2.521       .  S
C899       C3055   1.495       .  S
C900       C2882   1.509       .  S
N901        N902   1.338       .  A
N901        N907   1.320       .  A
N901       Mn930   2.317       .  S
N902        C909   1.375       .  A
N903        N905   1.320       .  A
N903        N904   1.310       .  A
N903       Mn919   2.146       .  S
N904        C910   1.336       .  A
N905        N906   1.338       .  A
N905       Mn930   2.309       .  S
N906        C910   1.373       .  A
N907        N908   1.309       .  A
N907       Mn919   2.144       .  S
N908        C909   1.335       .  A
C909       C3945   1.499       .  S
C910       C3292   1.490       .  S
N911        N917   1.309       .  A
N911        N912   1.312       .  A
N911       Mn941   2.158       .  S
N912        C920   1.348       .  A
N913        N914   1.322       .  A
N913        N915   1.309       .  A
N913       Mn919   2.192       .  S
N914        C921   1.355       .  A
N915        N916   1.314       .  A
N915       Mn941   2.165       .  S
N916        C921   1.349       .  A
N917        N918   1.322       .  A
N917       Mn919   2.190       .  S
N918        C920   1.356       .  A
Mn919      Cl943   2.525       .  S
C920       C2872   1.466       .  S
C921       C2855   1.470       .  S
N922        N923   1.339       .  A
N922        N928   1.317       .  A
N922       Mn930   2.304       .  S
N923        C931   1.376       .  A
N924        N926   1.318       .  A
N924        N925   1.311       .  A
N924       Mn942   2.141       .  S
N925        C932   1.337       .  A
N926        N927   1.338       .  A
N926       Mn930   2.315       .  S
N927        C932   1.376       .  A
N928        N929   1.308       .  A
N928       Mn942   2.139       .  S
N929        C931   1.336       .  A
Mn930      Cl943   2.562       .  S
C931       C3095   1.500       .  S
C932       C3775   1.502       .  S
N933        N934   1.313       .  A
N933        N939   1.309       .  A
N933       Mn941   2.162       .  S
N934        C944   1.349       .  A
N935        N936   1.318       .  A
N935        N937   1.308       .  A
N935       Mn942   2.171       .  S
N936        C945   1.352       .  A
N937        N938   1.314       .  A
N937       Mn941   2.158       .  S
N938        C945   1.349       .  A
N939        N940   1.318       .  A
N939       Mn942   2.172       .  S
N940        C944   1.352       .  A
Mn941      Cl943   2.553       .  S
Mn942      Cl943   2.518       .  S
C944       C2862   1.464       .  S
C945       C2845   1.461       .  S
N946        N947   1.338       .  A
N946        N952   1.318       .  A
N946       Mn975   2.316       .  S
N947        C954   1.376       .  A
N948        N950   1.318       .  A
N948        N949   1.309       .  A
N948       Mn964   2.135       .  S
N949        C955   1.336       .  A
N950        N951   1.338       .  A
N950       Mn975   2.315       .  S
N951        C955   1.376       .  A
N952        N953   1.308       .  A
N952       Mn964   2.127       .  S
N953        C954   1.334       .  A
C954       C3255   1.495       .  S
C955       C2792   1.500       .  S
N956        N962   1.309       .  A
N956        N957   1.316       .  A
N956       Mn986   2.173       .  S
N957        C965   1.352       .  A
N958        N959   1.316       .  A
N958        N960   1.309       .  A
N958       Mn964   2.163       .  S
N959        C966   1.348       .  A
N960        N961   1.317       .  A
N960       Mn986   2.178       .  S
N961        C966   1.354       .  A
N962        N963   1.316       .  A
N962       Mn964   2.160       .  S
N963        C965   1.348       .  A
Mn964      Cl988   2.505       .  S
C965       C2825   1.457       .  S
C966       C2835   1.461       .  S
N967        N968   1.339       .  A
N967        N973   1.318       .  A
N967       Mn975   2.315       .  S
N968        C976   1.377       .  A
N969        N971   1.319       .  A
N969        N970   1.309       .  A
N969       Mn987   2.144       .  S
N970        C977   1.337       .  A
N971        N972   1.338       .  A
N971       Mn975   2.313       .  S
N972        C977   1.375       .  A
N973        N974   1.308       .  A
N973       Mn987   2.133       .  S
N974        C976   1.334       .  A
Mn975      Cl988   2.575       .  S
C976       C2802   1.501       .  S
C977       C3105   1.500       .  S
N978        N979   1.315       .  A
N978        N984   1.309       .  A
N978       Mn986   2.171       .  S
N979        C989   1.352       .  A
N980        N981   1.319       .  A
N980        N982   1.309       .  A
N980       Mn987   2.177       .  S
N981        C990   1.352       .  A
N982        N983   1.315       .  A
N982       Mn986   2.172       .  S
N983        C990   1.351       .  A
N984        N985   1.317       .  A
N984       Mn987   2.167       .  S
N985        C989   1.350       .  A
Mn986      Cl988   2.569       .  S
Mn987      Cl988   2.505       .  S
C989       C2842   1.461       .  S
C990       C2812   1.466       .  S
N991        N992   1.316       .  A
N991        N997   1.310       .  A
N991      Mn1020   2.178       .  S
N992        C999   1.352       .  A
N993        N995   1.309       .  A
N993        N994   1.318       .  A
N993      Mn1009   2.172       .  S
N994       C1000   1.351       .  A
N995        N996   1.315       .  A
N995      Mn1020   2.172       .  S
N996       C1000   1.351       .  A
N997        N998   1.320       .  A
N997      Mn1009   2.180       .  S
N998        C999   1.352       .  A
C999       C2775   1.470       .  S
C1000      C2785   1.463       .  S
N1001      N1007   1.319       .  A
N1001      N1002   1.337       .  A
N1001     Mn1031   2.310       .  S
N1002      C1010   1.375       .  A
N1003      N1004   1.308       .  A
N1003      N1005   1.318       .  A
N1003     Mn1009   2.137       .  S
N1004      C1011   1.335       .  A
N1005      N1006   1.339       .  A
N1005     Mn1031   2.314       .  S
N1006      C1011   1.377       .  A
N1007      N1008   1.310       .  A
N1007     Mn1009   2.145       .  S
N1008      C1010   1.337       .  A
Mn1009    Cl1033   2.515       .  S
C1010      C3285   1.500       .  S
C1011      C3585   1.500       .  S
N1012      N1013   1.318       .  A
N1012      N1018   1.310       .  A
N1012     Mn1020   2.179       .  S
N1013      C1021   1.353       .  A
N1014      N1016   1.309       .  A
N1014      N1015   1.319       .  A
N1014     Mn1032   2.172       .  S
N1015      C1022   1.351       .  A
N1016      N1017   1.315       .  A
N1016     Mn1020   2.173       .  S
N1017      C1022   1.351       .  A
N1018      N1019   1.317       .  A
N1018     Mn1032   2.172       .  S
N1019      C1021   1.350       .  A
Mn1020    Cl1033   2.562       .  S
C1021      C2912   1.466       .  S
C1022      C2762   1.464       .  S
N1023      N1024   1.339       .  A
N1023      N1029   1.318       .  A
N1023     Mn1031   2.315       .  S
N1024      C1034   1.376       .  A
N1025      N1026   1.310       .  A
N1025      N1027   1.318       .  A
N1025     Mn1032   2.140       .  S
N1026      C1035   1.337       .  A
N1027      N1028   1.338       .  A
N1027     Mn1031   2.315       .  S
N1028      C1035   1.375       .  A
N1029      N1030   1.309       .  A
N1029     Mn1032   2.138       .  S
N1030      C1034   1.335       .  A
Mn1031    Cl1033   2.568       .  S
Mn1032    Cl1033   2.517       .  S
C1034      C3405   1.498       .  S
C1035      C3042   1.501       .  S
N1036      N1037   1.338       .  A
N1036      N1042   1.319       .  A
N1036     Mn1065   2.306       .  S
N1037      C1044   1.375       .  A
N1038      N1040   1.318       .  A
N1038      N1039   1.311       .  A
N1038     Mn1054   2.138       .  S
N1039      C1045   1.336       .  A
N1040      N1041   1.337       .  A
N1040     Mn1065   2.313       .  S
N1041      C1045   1.375       .  A
N1042      N1043   1.308       .  A
N1042     Mn1054   2.144       .  S
N1043      C1044   1.336       .  A
C1044      C3645   1.499       .  S
C1045      C3245   1.498       .  S
N1046      N1052   1.309       .  A
N1046      N1047   1.314       .  A
N1046     Mn1076   2.166       .  S
N1047      C1055   1.350       .  A
N1048      N1049   1.318       .  A
N1048      N1050   1.308       .  A
N1048     Mn1054   2.173       .  S
N1049      C1056   1.352       .  A
N1050      N1051   1.315       .  A
N1050     Mn1076   2.168       .  S
N1051      C1056   1.351       .  A
N1052      N1053   1.319       .  A
N1052     Mn1054   2.178       .  S
N1053      C1055   1.353       .  A
Mn1054    Cl1078   2.519       .  S
C1055      C2752   1.466       .  S
C1056      C2732   1.464       .  S
N1057      N1058   1.340       .  A
N1057      N1063   1.319       .  A
N1057     Mn1065   2.318       .  S
N1058      C1066   1.376       .  A
N1059      N1061   1.319       .  A
N1059      N1060   1.310       .  A
N1059     Mn1077   2.144       .  S
N1060      C1067   1.337       .  A
N1061      N1062   1.340       .  A
N1061     Mn1065   2.323       .  S
N1062      C1067   1.376       .  A
N1063      N1064   1.310       .  A
N1063     Mn1077   2.150       .  S
N1064      C1066   1.337       .  A
Mn1065    Cl1078   2.562       .  S
C1066      C3005   1.504       .  S
C1067      C3375   1.501       .  S
N1068      N1069   1.312       .  A
N1068      N1074   1.310       .  A
N1068     Mn1076   2.164       .  S
N1069      C1079   1.348       .  A
N1070      N1071   1.319       .  A
N1070      N1072   1.309       .  A
N1070     Mn1077   2.174       .  S
N1071      C1080   1.351       .  A
N1072      N1073   1.314       .  A
N1072     Mn1076   2.163       .  S
N1073      C1080   1.349       .  A
N1074      N1075   1.323       .  A
N1074     Mn1077   2.192       .  S
N1075      C1079   1.356       .  A
Mn1076    Cl1078   2.553       .  S
Mn1077    Cl1078   2.527       .  S
C1079      C2742   1.467       .  S
C1080      C2722   1.461       .  S
N1081      N1082   1.313       .  A
N1081      N1087   1.309       .  A
N1081     Mn1110   2.167       .  S
N1082      C1089   1.350       .  A
N1083      N1085   1.309       .  A
N1083      N1084   1.318       .  A
N1083     Mn1099   2.179       .  S
N1084      C1090   1.352       .  A
N1085      N1086   1.316       .  A
N1085     Mn1110   2.167       .  S
N1086      C1090   1.352       .  A
N1087      N1088   1.320       .  A
N1087     Mn1099   2.179       .  S
N1088      C1089   1.353       .  A
C1089      C2692   1.466       .  S
C1090      C2715   1.467       .  S
N1091      N1097   1.319       .  A
N1091      N1092   1.340       .  A
N1091     Mn1121   2.315       .  S
N1092      C1100   1.377       .  A
N1093      N1094   1.312       .  A
N1093      N1095   1.318       .  A
N1093     Mn1099   2.151       .  S
N1094      C1101   1.339       .  A
N1095      N1096   1.337       .  A
N1095     Mn1121   2.303       .  S
N1096      C1101   1.373       .  A
N1097      N1098   1.307       .  A
N1097     Mn1099   2.138       .  S
N1098      C1100   1.335       .  A
Mn1099    Cl1123   2.512       .  S
C1100      C3572   1.501       .  S
C1101      C3935   1.498       .  S
N1102      N1103   1.313       .  A
N1102      N1108   1.309       .  A
N1102     Mn1110   2.167       .  S
N1103      C1111   1.350       .  A
N1104      N1106   1.308       .  A
N1104      N1105   1.319       .  A
N1104     Mn1122   2.172       .  S
N1105      C1112   1.351       .  A
N1106      N1107   1.315       .  A
N1106     Mn1110   2.170       .  S
N1107      C1112   1.352       .  A
N1108      N1109   1.320       .  A
N1108     Mn1122   2.173       .  S
N1109      C1111   1.353       .  A
Mn1110    Cl1123   2.559       .  S
C1111      C2702   1.463       .  S
C1112      C2682   1.465       .  S
N1113      N1114   1.336       .  A
N1113      N1119   1.319       .  A
N1113     Mn1121   2.303       .  S
N1114      C1124   1.374       .  A
N1115      N1116   1.307       .  A
N1115      N1117   1.318       .  A
N1115     Mn1122   2.134       .  S
N1116      C1125   1.335       .  A
N1117      N1118   1.337       .  A
N1117     Mn1121   2.302       .  S
N1118      C1125   1.374       .  A
N1119      N1120   1.306       .  A
N1119     Mn1122   2.130       .  S
N1120      C1124   1.334       .  A
Mn1121    Cl1123   2.571       .  S
Mn1122    Cl1123   2.511       .  S
C1124      C3815   1.488       .  S
C1125      C3462   1.493       .  S
N1126      N1127   1.339       .  A
N1126      N1132   1.320       .  A
N1126     Mn1155   2.319       .  S
N1127      C1134   1.376       .  A
N1128      N1130   1.319       .  A
N1128      N1129   1.310       .  A
N1128     Mn1144   2.146       .  S
N1129      C1135   1.338       .  A
N1130      N1131   1.339       .  A
N1130     Mn1155   2.318       .  S
N1131      C1135   1.376       .  A
N1132      N1133   1.310       .  A
N1132     Mn1144   2.146       .  S
N1133      C1134   1.337       .  A
C1134      C3545   1.500       .  S
C1135      C2662   1.506       .  S
N1136      N1142   1.310       .  A
N1136      N1137   1.314       .  A
N1136     Mn1166   2.168       .  S
N1137      C1145   1.350       .  A
N1138      N1139   1.319       .  A
N1138      N1140   1.309       .  A
N1138     Mn1144   2.179       .  S
N1139      C1146   1.353       .  A
N1140      N1141   1.315       .  A
N1140     Mn1166   2.166       .  S
N1141      C1146   1.350       .  A
N1142      N1143   1.318       .  A
N1142     Mn1144   2.175       .  S
N1143      C1145   1.352       .  A
Mn1144    Cl1168   2.518       .  S
C1145      C2652   1.463       .  S
C1146      C2675   1.465       .  S
N1147      N1148   1.339       .  A
N1147      N1153   1.319       .  A
N1147     Mn1155   2.317       .  S
N1148      C1156   1.376       .  A
N1149      N1151   1.318       .  A
N1149      N1150   1.309       .  A
N1149     Mn1167   2.138       .  S
N1150      C1157   1.335       .  A
N1151      N1152   1.339       .  A
N1151     Mn1155   2.319       .  S
N1152      C1157   1.377       .  A
N1153      N1154   1.309       .  A
N1153     Mn1167   2.141       .  S
N1154      C1156   1.336       .  A
Mn1155    Cl1168   2.569       .  S
C1156      C2642   1.501       .  S
C1157      C3415   1.503       .  S
N1158      N1159   1.314       .  A
N1158      N1164   1.309       .  A
N1158     Mn1166   2.170       .  S
N1159      C1169   1.351       .  A
N1160      N1161   1.319       .  A
N1160      N1162   1.308       .  A
N1160     Mn1167   2.175       .  S
N1161      C1170   1.352       .  A
N1162      N1163   1.315       .  A
N1162     Mn1166   2.168       .  S
N1163      C1170   1.350       .  A
N1164      N1165   1.320       .  A
N1164     Mn1167   2.177       .  S
N1165      C1169   1.352       .  A
Mn1166    Cl1168   2.559       .  S
Mn1167    Cl1168   2.519       .  S
C1169      C2765   1.465       .  S
C1170      C2902   1.464       .  S
N1171      N1172   1.316       .  A
N1171      N1177   1.309       .  A
N1171     Mn1200   2.171       .  S
N1172      C1179   1.351       .  A
N1173      N1175   1.309       .  A
N1173      N1174   1.321       .  A
N1173     Mn1189   2.182       .  S
N1174      C1180   1.353       .  A
N1175      N1176   1.314       .  A
N1175     Mn1200   2.172       .  S
N1176      C1180   1.351       .  A
N1177      N1178   1.317       .  A
N1177     Mn1189   2.174       .  S
N1178      C1179   1.351       .  A
C1179      C2635   1.462       .  S
C1180      C2965   1.468       .  S
N1181      N1187   1.319       .  A
N1181      N1182   1.340       .  A
N1181     Mn1211   2.324       .  S
N1182      C1190   1.377       .  A
N1183      N1184   1.311       .  A
N1183      N1185   1.320       .  A
N1183     Mn1189   2.142       .  S
N1184      C1191   1.336       .  A
N1185      N1186   1.338       .  A
N1185     Mn1211   2.315       .  S
N1186      C1191   1.373       .  A
N1187      N1188   1.308       .  A
N1187     Mn1189   2.134       .  S
N1188      C1190   1.335       .  A
Mn1189    Cl1213   2.520       .  S
C1190      C2622   1.502       .  S
C1191      C3685   1.490       .  S
N1192      N1193   1.314       .  A
N1192      N1198   1.309       .  A
N1192     Mn1200   2.169       .  S
N1193      C1201   1.351       .  A
N1194      N1196   1.309       .  A
N1194      N1195   1.317       .  A
N1194     Mn1212   2.167       .  S
N1195      C1202   1.350       .  A
N1196      N1197   1.316       .  A
N1196     Mn1200   2.172       .  S
N1197      C1202   1.352       .  A
N1198      N1199   1.318       .  A
N1198     Mn1212   2.170       .  S
N1199      C1201   1.351       .  A
Mn1200    Cl1213   2.558       .  S
C1201      C2612   1.464       .  S
C1202      C2705   1.462       .  S
N1203      N1204   1.340       .  A
N1203      N1209   1.317       .  A
N1203     Mn1211   2.316       .  S
N1204      C1214   1.377       .  A
N1205      N1206   1.309       .  A
N1205      N1207   1.317       .  A
N1205     Mn1212   2.133       .  S
N1206      C1215   1.335       .  A
N1207      N1208   1.340       .  A
N1207     Mn1211   2.320       .  S
N1208      C1215   1.378       .  A
N1209      N1210   1.308       .  A
N1209     Mn1212   2.140       .  S
N1210      C1214   1.336       .  A
Mn1211    Cl1213   2.564       .  S
Mn1212    Cl1213   2.515       .  S
C1214      C3455   1.504       .  S
C1215      C2602   1.504       .  S
N1216      N1217   1.337       .  A
N1216      N1222   1.319       .  A
N1216     Mn1245   2.306       .  S
N1217      C1224   1.374       .  A
N1218      N1220   1.319       .  A
N1218      N1219   1.311       .  A
N1218     Mn1234   2.143       .  S
N1219      C1225   1.336       .  A
N1220      N1221   1.337       .  A
N1220     Mn1245   2.309       .  S
N1221      C1225   1.373       .  A
N1222      N1223   1.308       .  A
N1222     Mn1234   2.139       .  S
N1223      C1224   1.335       .  A
C1224      C3495   1.495       .  S
C1225      C2562   1.489       .  S
N1226      N1232   1.309       .  A
N1226      N1227   1.315       .  A
N1226     Mn1256   2.171       .  S
N1227      C1235   1.350       .  A
N1228      N1229   1.320       .  A
N1228      N1230   1.309       .  A
N1228     Mn1234   2.183       .  S
N1229      C1236   1.353       .  A
N1230      N1231   1.317       .  A
N1230     Mn1256   2.178       .  S
N1231      C1236   1.352       .  A
N1232      N1233   1.320       .  A
N1232     Mn1234   2.181       .  S
N1233      C1235   1.353       .  A
Mn1234    Cl1258   2.516       .  S
C1235      C2552   1.466       .  S
C1236      C2582   1.471       .  S
N1237      N1238   1.337       .  A
N1237      N1243   1.318       .  A
N1237     Mn1245   2.300       .  S
N1238      C1246   1.374       .  A
N1239      N1241   1.317       .  A
N1239      N1240   1.309       .  A
N1239     Mn1257   2.136       .  S
N1240      C1247   1.336       .  A
N1241      N1242   1.340       .  A
N1241     Mn1245   2.318       .  S
N1242      C1247   1.377       .  A
N1243      N1244   1.310       .  A
N1243     Mn1257   2.143       .  S
N1244      C1246   1.337       .  A
Mn1245    Cl1258   2.570       .  S
C1246      C2575   1.494       .  S
C1247      C3442   1.505       .  S
N1248      N1249   1.316       .  A
N1248      N1254   1.310       .  A
N1248     Mn1256   2.173       .  S
N1249      C1259   1.352       .  A
N1250      N1251   1.316       .  A
N1250      N1252   1.309       .  A
N1250     Mn1257   2.163       .  S
N1251      C1260   1.349       .  A
N1252      N1253   1.316       .  A
N1252     Mn1256   2.172       .  S
N1253      C1260   1.352       .  A
N1254      N1255   1.318       .  A
N1254     Mn1257   2.171       .  S
N1255      C1259   1.351       .  A
Mn1256    Cl1258   2.563       .  S
Mn1257    Cl1258   2.511       .  S
C1259      C2592   1.464       .  S
C1260      C2822   1.459       .  S
N1261      N1262   1.318       .  A
N1261      N1267   1.310       .  A
N1261     Mn1290   2.180       .  S
N1262      C1269   1.354       .  A
N1263      N1265   1.310       .  A
N1263      N1264   1.319       .  A
N1263     Mn1279   2.178       .  S
N1264      C1270   1.352       .  A
N1265      N1266   1.317       .  A
N1265     Mn1290   2.180       .  S
N1266      C1270   1.352       .  A
N1267      N1268   1.316       .  A
N1267     Mn1279   2.169       .  S
N1268      C1269   1.349       .  A
C1269      C2545   1.464       .  S
C1270      C2512   1.470       .  S
N1271      N1277   1.318       .  A
N1271      N1272   1.339       .  A
N1271     Mn1301   2.315       .  S
N1272      C1280   1.376       .  A
N1273      N1274   1.311       .  A
N1273      N1275   1.319       .  A
N1273     Mn1279   2.148       .  S
N1274      C1281   1.337       .  A
N1275      N1276   1.339       .  A
N1275     Mn1301   2.315       .  S
N1276      C1281   1.376       .  A
N1277      N1278   1.309       .  A
N1277     Mn1279   2.139       .  S
N1278      C1280   1.336       .  A
Mn1279    Cl1303   2.509       .  S
C1280      C2502   1.503       .  S
C1281      C2665   1.501       .  S
N1282      N1283   1.315       .  A
N1282      N1288   1.309       .  A
N1282     Mn1290   2.173       .  S
N1283      C1291   1.351       .  A
N1284      N1286   1.310       .  A
N1284      N1285   1.320       .  A
N1284     Mn1302   2.175       .  S
N1285      C1292   1.352       .  A
N1286      N1287   1.315       .  A
N1286     Mn1290   2.182       .  S
N1287      C1292   1.352       .  A
N1288      N1289   1.318       .  A
N1288     Mn1302   2.168       .  S
N1289      C1291   1.351       .  A
Mn1290    Cl1303   2.566       .  S
C1291      C2525   1.462       .  S
C1292      C2535   1.467       .  S
N1293      N1294   1.339       .  A
N1293      N1299   1.318       .  A
N1293     Mn1301   2.315       .  S
N1294      C1304   1.376       .  A
N1295      N1296   1.308       .  A
N1295      N1297   1.319       .  A
N1295     Mn1302   2.136       .  S
N1296      C1305   1.334       .  A
N1297      N1298   1.340       .  A
N1297     Mn1301   2.317       .  S
N1298      C1305   1.376       .  A
N1299      N1300   1.308       .  A
N1299     Mn1302   2.134       .  S
N1300      C1304   1.335       .  A
Mn1301    Cl1303   2.576       .  S
Mn1302    Cl1303   2.513       .  S
C1304      C2492   1.499       .  S
C1305      C2565   1.498       .  S
N1306      N1307   1.338       .  A
N1306      N1312   1.320       .  A
N1306     Mn1335   2.317       .  S
N1307      C1314   1.375       .  A
N1308      N1310   1.318       .  A
N1308      N1309   1.311       .  A
N1308     Mn1324   2.144       .  S
N1309      C1315   1.336       .  A
N1310      N1311   1.339       .  A
N1310     Mn1335   2.320       .  S
N1311      C1315   1.377       .  A
N1312      N1313   1.313       .  A
N1312     Mn1324   2.160       .  S
N1313      C1314   1.340       .  A
C1314      C3215   1.507       .  S
C1315      C2472   1.508       .  S
N1316      N1322   1.310       .  A
N1316      N1317   1.315       .  A
N1316     Mn1346   2.169       .  S
N1317      C1325   1.351       .  A
N1318      N1319   1.318       .  A
N1318      N1320   1.309       .  A
N1318     Mn1324   2.177       .  S
N1319      C1326   1.352       .  A
N1320      N1321   1.316       .  A
N1320     Mn1346   2.171       .  S
N1321      C1326   1.351       .  A
N1322      N1323   1.320       .  A
N1322     Mn1324   2.186       .  S
N1323      C1325   1.353       .  A
Mn1324    Cl1348   2.517       .  S
C1325      C2465   1.468       .  S
C1326      C2755   1.467       .  S
N1327      N1328   1.341       .  A
N1327      N1333   1.319       .  A
N1327     Mn1335   2.326       .  S
N1328      C1336   1.378       .  A
N1329      N1331   1.319       .  A
N1329      N1330   1.309       .  A
N1329     Mn1347   2.136       .  S
N1330      C1337   1.335       .  A
N1331      N1332   1.340       .  A
N1331     Mn1335   2.326       .  S
N1332      C1337   1.377       .  A
N1333      N1334   1.308       .  A
N1333     Mn1347   2.138       .  S
N1334      C1336   1.335       .  A
Mn1335    Cl1348   2.568       .  S
C1336      C2442   1.506       .  S
C1337      C3175   1.501       .  S
N1338      N1339   1.315       .  A
N1338      N1344   1.310       .  A
N1338     Mn1346   2.171       .  S
N1339      C1349   1.350       .  A
N1340      N1341   1.320       .  A
N1340      N1342   1.308       .  A
N1340     Mn1347   2.175       .  S
N1341      C1350   1.352       .  A
N1342      N1343   1.315       .  A
N1342     Mn1346   2.171       .  S
N1343      C1350   1.351       .  A
N1344      N1345   1.321       .  A
N1344     Mn1347   2.181       .  S
N1345      C1349   1.352       .  A
Mn1346    Cl1348   2.562       .  S
Mn1347    Cl1348   2.522       .  S
C1349      C2482   1.465       .  S
C1350      C2452   1.465       .  S
N1351      N1352   1.317       .  A
N1351      N1357   1.309       .  A
N1351     Mn1380   2.174       .  S
N1352      C1359   1.352       .  A
N1353      N1355   1.310       .  A
N1353      N1354   1.320       .  A
N1353     Mn1369   2.188       .  S
N1354      C1360   1.354       .  A
N1355      N1356   1.314       .  A
N1355     Mn1380   2.165       .  S
N1356      C1360   1.350       .  A
N1357      N1358   1.317       .  A
N1357     Mn1369   2.176       .  S
N1358      C1359   1.351       .  A
C1359      C2405   1.468       .  S
C1360      C2412   1.468       .  S
N1361      N1367   1.319       .  A
N1361      N1362   1.337       .  A
N1361     Mn1391   2.315       .  S
N1362      C1370   1.375       .  A
N1363      N1364   1.313       .  A
N1363      N1365   1.319       .  A
N1363     Mn1369   2.155       .  S
N1364      C1371   1.339       .  A
N1365      N1366   1.339       .  A
N1365     Mn1391   2.320       .  S
N1366      C1371   1.376       .  A
N1367      N1368   1.312       .  A
N1367     Mn1369   2.147       .  S
N1368      C1370   1.338       .  A
Mn1369    Cl1393   2.521       .  S
C1370      C2422   1.500       .  S
C1371      C2885   1.508       .  S
N1372      N1373   1.315       .  A
N1372      N1378   1.309       .  A
N1372     Mn1380   2.175       .  S
N1373      C1381   1.352       .  A
N1374      N1376   1.309       .  A
N1374      N1375   1.319       .  A
N1374     Mn1392   2.177       .  S
N1375      C1382   1.352       .  A
N1376      N1377   1.315       .  A
N1376     Mn1380   2.167       .  S
N1377      C1382   1.350       .  A
N1378      N1379   1.318       .  A
N1378     Mn1392   2.170       .  S
N1379      C1381   1.351       .  A
Mn1380    Cl1393   2.560       .  S
C1381      C2432   1.463       .  S
C1382      C2542   1.461       .  S
N1383      N1384   1.338       .  A
N1383      N1389   1.318       .  A
N1383     Mn1391   2.315       .  S
N1384      C1394   1.376       .  A
N1385      N1386   1.309       .  A
N1385      N1387   1.319       .  A
N1385     Mn1392   2.142       .  S
N1386      C1395   1.336       .  A
N1387      N1388   1.341       .  A
N1387     Mn1391   2.325       .  S
N1388      C1395   1.378       .  A
N1389      N1390   1.310       .  A
N1389     Mn1392   2.137       .  S
N1390      C1394   1.336       .  A
Mn1391    Cl1393   2.563       .  S
Mn1392    Cl1393   2.521       .  S
C1394      C2645   1.500       .  S
C1395      C2475   1.505       .  S
N1396      N1397   1.338       .  A
N1396      N1402   1.318       .  A
N1396     Mn1425   2.305       .  S
N1397      C1404   1.375       .  A
N1398      N1400   1.318       .  A
N1398      N1399   1.308       .  A
N1398     Mn1414   2.137       .  S
N1399      C1405   1.336       .  A
N1400      N1401   1.340       .  A
N1400     Mn1425   2.320       .  S
N1401      C1405   1.377       .  A
N1402      N1403   1.309       .  A
N1402     Mn1414   2.140       .  S
N1403      C1404   1.336       .  A
C1404      C4045   1.497       .  S
C1405      C2382   1.504       .  S
N1406      N1412   1.310       .  A
N1406      N1407   1.315       .  A
N1406     Mn1436   2.174       .  S
N1407      C1415   1.351       .  A
N1408      N1409   1.317       .  A
N1408      N1410   1.309       .  A
N1408     Mn1414   2.166       .  S
N1409      C1416   1.350       .  A
N1410      N1411   1.314       .  A
N1410     Mn1436   2.167       .  S
N1411      C1416   1.351       .  A
N1412      N1413   1.319       .  A
N1412     Mn1414   2.175       .  S
N1413      C1415   1.352       .  A
Mn1414    Cl1438   2.511       .  S
C1415      C2972   1.464       .  S
C1416      C2392   1.460       .  S
N1417      N1418   1.337       .  A
N1417      N1423   1.319       .  A
N1417     Mn1425   2.305       .  S
N1418      C1426   1.374       .  A
N1419      N1421   1.318       .  A
N1419      N1420   1.309       .  A
N1419     Mn1437   2.130       .  S
N1420      C1427   1.334       .  A
N1421      N1422   1.338       .  A
N1421     Mn1425   2.316       .  S
N1422      C1427   1.376       .  A
N1423      N1424   1.308       .  A
N1423     Mn1437   2.138       .  S
N1424      C1426   1.336       .  A
Mn1425    Cl1438   2.568       .  S
C1426      C2372   1.494       .  S
C1427      C3822   1.499       .  S
N1428      N1429   1.317       .  A
N1428      N1434   1.309       .  A
N1428     Mn1436   2.174       .  S
N1429      C1439   1.352       .  A
N1430      N1431   1.319       .  A
N1430      N1432   1.309       .  A
N1430     Mn1437   2.171       .  S
N1431      C1440   1.352       .  A
N1432      N1433   1.314       .  A
N1432     Mn1436   2.168       .  S
N1433      C1440   1.350       .  A
N1434      N1435   1.318       .  A
N1434     Mn1437   2.172       .  S
N1435      C1439   1.351       .  A
Mn1436    Cl1438   2.561       .  S
Mn1437    Cl1438   2.512       .  S
C1439      C2685   1.465       .  S
C1440      C2615   1.464       .  S
N1441      N1442   1.316       .  A
N1441      N1447   1.309       .  A
N1441     Mn1470   2.176       .  S
N1442      C1449   1.352       .  A
N1443      N1445   1.309       .  A
N1443      N1444   1.318       .  A
N1443     Mn1459   2.176       .  S
N1444      C1450   1.352       .  A
N1445      N1446   1.316       .  A
N1445     Mn1470   2.169       .  S
N1446      C1450   1.351       .  A
N1447      N1448   1.319       .  A
N1447     Mn1459   2.172       .  S
N1448      C1449   1.351       .  A
C1449      C2362   1.466       .  S
C1450      C2555   1.465       .  S
N1451      N1457   1.319       .  A
N1451      N1452   1.340       .  A
N1451     Mn1481   2.324       .  S
N1452      C1460   1.377       .  A
N1453      N1454   1.308       .  A
N1453      N1455   1.319       .  A
N1453     Mn1459   2.139       .  S
N1454      C1461   1.336       .  A
N1455      N1456   1.339       .  A
N1455     Mn1481   2.315       .  S
N1456      C1461   1.376       .  A
N1457      N1458   1.309       .  A
N1457     Mn1459   2.133       .  S
N1458      C1460   1.335       .  A
Mn1459    Cl1483   2.516       .  S
C1460      C2505   1.500       .  S
C1461      C3905   1.501       .  S
N1462      N1463   1.315       .  A
N1462      N1468   1.309       .  A
N1462     Mn1470   2.170       .  S
N1463      C1471   1.351       .  A
N1464      N1466   1.309       .  A
N1464      N1465   1.319       .  A
N1464     Mn1482   2.180       .  S
N1465      C1472   1.353       .  A
N1466      N1467   1.313       .  A
N1466     Mn1470   2.165       .  S
N1467      C1472   1.350       .  A
N1468      N1469   1.320       .  A
N1468     Mn1482   2.179       .  S
N1469      C1471   1.352       .  A
Mn1470    Cl1483   2.563       .  S
C1471      C2815   1.467       .  S
C1472      C2865   1.466       .  S
N1473      N1474   1.339       .  A
N1473      N1479   1.320       .  A
N1473     Mn1481   2.318       .  S
N1474      C1484   1.375       .  A
N1475      N1476   1.310       .  A
N1475      N1477   1.319       .  A
N1475     Mn1482   2.144       .  S
N1476      C1485   1.336       .  A
N1477      N1478   1.338       .  A
N1477     Mn1481   2.312       .  S
N1478      C1485   1.375       .  A
N1479      N1480   1.311       .  A
N1479     Mn1482   2.148       .  S
N1480      C1484   1.337       .  A
Mn1481    Cl1483   2.571       .  S
Mn1482    Cl1483   2.515       .  S
C1484      C3765   1.504       .  S
C1485      C2352   1.499       .  S
N1486      N1487   1.315       .  A
N1486      N1492   1.308       .  A
N1486     Mn1515   2.168       .  S
N1487      C1494   1.351       .  A
N1488      N1490   1.309       .  A
N1488      N1489   1.319       .  A
N1488     Mn1504   2.171       .  S
N1489      C1495   1.351       .  A
N1490      N1491   1.314       .  A
N1490     Mn1515   2.166       .  S
N1491      C1495   1.350       .  A
N1492      N1493   1.319       .  A
N1492     Mn1504   2.180       .  S
N1493      C1494   1.353       .  A
C1494      C2345   1.467       .  S
C1495      C2655   1.462       .  S
N1496      N1502   1.320       .  A
N1496      N1497   1.337       .  A
N1496     Mn1526   2.312       .  S
N1497      C1505   1.375       .  A
N1498      N1499   1.306       .  A
N1498      N1500   1.318       .  A
N1498     Mn1504   2.131       .  S
N1499      C1506   1.333       .  A
N1500      N1501   1.340       .  A
N1500     Mn1526   2.315       .  S
N1501      C1506   1.377       .  A
N1502      N1503   1.310       .  A
N1502     Mn1504   2.146       .  S
N1503      C1505   1.337       .  A
Mn1504    Cl1528   2.509       .  S
C1505      C2495   1.500       .  S
C1506      C3855   1.501       .  S
N1507      N1508   1.315       .  A
N1507      N1513   1.309       .  A
N1507     Mn1515   2.169       .  S
N1508      C1516   1.351       .  A
N1509      N1511   1.309       .  A
N1509      N1510   1.319       .  A
N1509     Mn1527   2.171       .  S
N1510      C1517   1.351       .  A
N1511      N1512   1.314       .  A
N1511     Mn1515   2.163       .  S
N1512      C1517   1.350       .  A
N1513      N1514   1.320       .  A
N1513     Mn1527   2.184       .  S
N1514      C1516   1.353       .  A
Mn1515    Cl1528   2.564       .  S
C1516      C2922   1.468       .  S
C1517      C2332   1.462       .  S
N1518      N1519   1.340       .  A
N1518      N1524   1.318       .  A
N1518     Mn1526   2.319       .  S
N1519      C1529   1.377       .  A
N1520      N1521   1.308       .  A
N1520      N1522   1.318       .  A
N1520     Mn1527   2.137       .  S
N1521      C1530   1.335       .  A
N1522      N1523   1.341       .  A
N1522     Mn1526   2.326       .  S
N1523      C1530   1.378       .  A
N1524      N1525   1.311       .  A
N1524     Mn1527   2.151       .  S
N1525      C1529   1.337       .  A
Mn1526    Cl1528   2.574       .  S
Mn1527    Cl1528   2.512       .  S
C1529      C3805   1.510       .  S
C1530      C2325   1.507       .  S
N1531      N1532   1.341       .  A
N1531      N1537   1.318       .  A
N1531     Mn1560   2.327       .  S
N1532      C1539   1.378       .  A
N1533      N1535   1.318       .  A
N1533      N1534   1.309       .  A
N1533     Mn1549   2.134       .  S
N1534      C1540   1.334       .  A
N1535      N1536   1.340       .  A
N1535     Mn1560   2.325       .  S
N1536      C1540   1.378       .  A
N1537      N1538   1.308       .  A
N1537     Mn1549   2.132       .  S
N1538      C1539   1.335       .  A
C1539      C2952   1.503       .  S
C1540      C2322   1.505       .  S
N1541      N1547   1.309       .  A
N1541      N1542   1.314       .  A
N1541     Mn1571   2.174       .  S
N1542      C1550   1.351       .  A
N1543      N1544   1.318       .  A
N1543      N1545   1.308       .  A
N1543     Mn1549   2.172       .  S
N1544      C1551   1.352       .  A
N1545      N1546   1.314       .  A
N1545     Mn1571   2.164       .  S
N1546      C1551   1.350       .  A
N1547      N1548   1.320       .  A
N1547     Mn1549   2.171       .  S
N1548      C1550   1.351       .  A
Mn1549    Cl1573   2.518       .  S
C1550      C2532   1.465       .  S
C1551      C2302   1.459       .  S
N1552      N1553   1.340       .  A
N1552      N1558   1.319       .  A
N1552     Mn1560   2.321       .  S
N1553      C1561   1.377       .  A
N1554      N1556   1.320       .  A
N1554      N1555   1.312       .  A
N1554     Mn1572   2.156       .  S
N1555      C1562   1.339       .  A
N1556      N1557   1.337       .  A
N1556     Mn1560   2.313       .  S
N1557      C1562   1.374       .  A
N1558      N1559   1.309       .  A
N1558     Mn1572   2.140       .  S
N1559      C1561   1.335       .  A
Mn1560    Cl1573   2.569       .  S
C1561      C2892   1.504       .  S
C1562      C2385   1.501       .  S
N1563      N1564   1.316       .  A
N1563      N1569   1.309       .  A
N1563     Mn1571   2.175       .  S
N1564      C1574   1.352       .  A
N1565      N1566   1.320       .  A
N1565      N1567   1.309       .  A
N1565     Mn1572   2.188       .  S
N1566      C1575   1.355       .  A
N1567      N1568   1.315       .  A
N1567     Mn1571   2.163       .  S
N1568      C1575   1.350       .  A
N1569      N1570   1.319       .  A
N1569     Mn1572   2.181       .  S
N1570      C1574   1.353       .  A
Mn1571    Cl1573   2.561       .  S
Mn1572    Cl1573   2.515       .  S
C1574      C2315   1.469       .  S
C1575      C2402   1.468       .  S
N1576      N1577   1.316       .  A
N1576      N1582   1.309       .  A
N1576     Mn1605   2.182       .  S
N1577      C1584   1.352       .  A
N1578      N1580   1.309       .  A
N1578      N1579   1.320       .  A
N1578     Mn1594   2.182       .  S
N1579      C1585   1.353       .  A
N1580      N1581   1.314       .  A
N1580     Mn1605   2.171       .  S
N1581      C1585   1.351       .  A
N1582      N1583   1.320       .  A
N1582     Mn1594   2.173       .  S
N1583      C1584   1.352       .  A
C1584      C2285   1.468       .  S
C1585      C2485   1.467       .  S
N1586      N1592   1.317       .  A
N1586      N1587   1.341       .  A
N1586     Mn1616   2.317       .  S
N1587      C1595   1.378       .  A
N1588      N1589   1.308       .  A
N1588      N1590   1.318       .  A
N1588     Mn1594   2.141       .  S
N1589      C1596   1.336       .  A
N1590      N1591   1.339       .  A
N1590     Mn1616   2.316       .  S
N1591      C1596   1.377       .  A
N1592      N1593   1.304       .  A
N1592     Mn1594   2.119       .  S
N1593      C1595   1.331       .  A
Mn1594    Cl1618   2.511       .  S
C1595      C3165   1.498       .  S
C1596      C4015   1.504       .  S
N1597      N1598   1.317       .  A
N1597      N1603   1.309       .  A
N1597     Mn1605   2.178       .  S
N1598      C1606   1.353       .  A
N1599      N1601   1.310       .  A
N1599      N1600   1.319       .  A
N1599     Mn1617   2.178       .  S
N1600      C1607   1.353       .  A
N1601      N1602   1.314       .  A
N1601     Mn1605   2.165       .  S
N1602      C1607   1.349       .  A
N1603      N1604   1.317       .  A
N1603     Mn1617   2.170       .  S
N1604      C1606   1.350       .  A
Mn1605    Cl1618   2.548       .  S
C1606      C2725   1.464       .  S
C1607      C2292   1.464       .  S
N1608      N1609   1.339       .  A
N1608      N1614   1.318       .  A
N1608     Mn1616   2.321       .  S
N1609      C1619   1.377       .  A
N1610      N1611   1.310       .  A
N1610      N1612   1.318       .  A
N1610     Mn1617   2.140       .  S
N1611      C1620   1.336       .  A
N1612      N1613   1.340       .  A
N1612     Mn1616   2.321       .  S
N1613      C1620   1.377       .  A
N1614      N1615   1.311       .  A
N1614     Mn1617   2.142       .  S
N1615      C1619   1.337       .  A
Mn1616    Cl1618   2.582       .  S
Mn1617    Cl1618   2.514       .  S
C1619      C3735   1.508       .  S
C1620      C3015   1.505       .  S
N1621      N1622   1.316       .  A
N1621      N1627   1.309       .  A
N1621     Mn1650   2.176       .  S
N1622      C1629   1.352       .  A
N1623      N1625   1.309       .  A
N1623      N1624   1.318       .  A
N1623     Mn1639   2.171       .  S
N1624      C1630   1.351       .  A
N1625      N1626   1.315       .  A
N1625     Mn1650   2.172       .  S
N1626      C1630   1.352       .  A
N1627      N1628   1.316       .  A
N1627     Mn1639   2.159       .  S
N1628      C1629   1.348       .  A
C1629      C2305   1.460       .  S
C1630      C2522   1.464       .  S
N1631      N1637   1.318       .  A
N1631      N1632   1.341       .  A
N1631     Mn1661   2.321       .  S
N1632      C1640   1.378       .  A
N1633      N1634   1.310       .  A
N1633      N1635   1.318       .  A
N1633     Mn1639   2.139       .  S
N1634      C1641   1.336       .  A
N1635      N1636   1.338       .  A
N1635     Mn1661   2.317       .  S
N1636      C1641   1.377       .  A
N1637      N1638   1.306       .  A
N1637     Mn1639   2.124       .  S
N1638      C1640   1.333       .  A
Mn1639    Cl1663   2.509       .  S
C1640      C2572   1.500       .  S
C1641      C2945   1.502       .  S
N1642      N1643   1.315       .  A
N1642      N1648   1.309       .  A
N1642     Mn1650   2.175       .  S
N1643      C1651   1.352       .  A
N1644      N1646   1.309       .  A
N1644      N1645   1.320       .  A
N1644     Mn1662   2.180       .  S
N1645      C1652   1.354       .  A
N1646      N1647   1.314       .  A
N1646     Mn1650   2.168       .  S
N1647      C1652   1.350       .  A
N1648      N1649   1.318       .  A
N1648     Mn1662   2.170       .  S
N1649      C1651   1.350       .  A
Mn1650    Cl1663   2.563       .  S
C1651      C2265   1.463       .  S
C1652      C2275   1.466       .  S
N1653      N1654   1.339       .  A
N1653      N1659   1.319       .  A
N1653     Mn1661   2.321       .  S
N1654      C1664   1.377       .  A
N1655      N1656   1.309       .  A
N1655      N1657   1.319       .  A
N1655     Mn1662   2.144       .  S
N1656      C1665   1.336       .  A
N1657      N1658   1.340       .  A
N1657     Mn1661   2.321       .  S
N1658      C1665   1.377       .  A
N1659      N1660   1.309       .  A
N1659     Mn1662   2.135       .  S
N1660      C1664   1.335       .  A
Mn1661    Cl1663   2.573       .  S
Mn1662    Cl1663   2.511       .  S
C1664      C2625   1.501       .  S
C1665      C2795   1.504       .  S
N1666      N1667   1.337       .  A
N1666      N1672   1.319       .  A
N1666     Mn1695   2.312       .  S
N1667      C1674   1.375       .  A
N1668      N1670   1.316       .  A
N1668      N1669   1.305       .  A
N1668     Mn1684   2.119       .  S
N1669      C1675   1.331       .  A
N1670      N1671   1.341       .  A
N1670     Mn1695   2.317       .  S
N1671      C1675   1.379       .  A
N1672      N1673   1.309       .  A
N1672     Mn1684   2.143       .  S
N1673      C1674   1.337       .  A
C1674      C3892   1.497       .  S
C1675      C3535   1.501       .  S
N1676      N1682   1.308       .  A
N1676      N1677   1.315       .  A
N1676     Mn1706   2.164       .  S
N1677      C1685   1.351       .  A
N1678      N1679   1.318       .  A
N1678      N1680   1.308       .  A
N1678     Mn1684   2.166       .  S
N1679      C1686   1.351       .  A
N1680      N1681   1.314       .  A
N1680     Mn1706   2.169       .  S
N1681      C1686   1.350       .  A
N1682      N1683   1.319       .  A
N1682     Mn1684   2.177       .  S
N1683      C1685   1.352       .  A
Mn1684    Cl1708   2.513       .  S
C1685      C2242   1.464       .  S
C1686      C2252   1.461       .  S
N1687      N1688   1.338       .  A
N1687      N1693   1.319       .  A
N1687     Mn1695   2.307       .  S
N1688      C1696   1.375       .  A
N1689      N1691   1.319       .  A
N1689      N1690   1.312       .  A
N1689     Mn1707   2.146       .  S
N1690      C1697   1.338       .  A
N1691      N1692   1.338       .  A
N1691     Mn1695   2.317       .  S
N1692      C1697   1.375       .  A
N1693      N1694   1.309       .  A
N1693     Mn1707   2.144       .  S
N1694      C1696   1.336       .  A
Mn1695    Cl1708   2.567       .  S
C1696      C3365   1.499       .  S
C1697      C3725   1.501       .  S
N1698      N1699   1.313       .  A
N1698      N1704   1.310       .  A
N1698     Mn1706   2.165       .  S
N1699      C1709   1.350       .  A
N1700      N1701   1.318       .  A
N1700      N1702   1.308       .  A
N1700     Mn1707   2.176       .  S
N1701      C1710   1.351       .  A
N1702      N1703   1.316       .  A
N1702     Mn1706   2.169       .  S
N1703      C1710   1.352       .  A
N1704      N1705   1.319       .  A
N1704     Mn1707   2.184       .  S
N1705      C1709   1.354       .  A
Mn1706    Cl1708   2.559       .  S
Mn1707    Cl1708   2.514       .  S
C1709      C2295   1.466       .  S
C1710      C2745   1.468       .  S
N1711      N1712   1.315       .  A
N1711      N1717   1.309       .  A
N1711     Mn1740   2.171       .  S
N1712      C1719   1.351       .  A
N1713      N1715   1.308       .  A
N1713      N1714   1.320       .  A
N1713     Mn1729   2.179       .  S
N1714      C1720   1.354       .  A
N1715      N1716   1.313       .  A
N1715     Mn1740   2.158       .  S
N1716      C1720   1.348       .  A
N1717      N1718   1.319       .  A
N1717     Mn1729   2.179       .  S
N1718      C1719   1.352       .  A
C1719      C2272   1.468       .  S
C1720      C2222   1.464       .  S
N1721      N1727   1.318       .  A
N1721      N1722   1.340       .  A
N1721     Mn1751   2.318       .  S
N1722      C1730   1.377       .  A
N1723      N1724   1.310       .  A
N1723      N1725   1.318       .  A
N1723     Mn1729   2.145       .  S
N1724      C1731   1.337       .  A
N1725      N1726   1.339       .  A
N1725     Mn1751   2.318       .  S
N1726      C1731   1.377       .  A
N1727      N1728   1.310       .  A
N1727     Mn1729   2.144       .  S
N1728      C1730   1.337       .  A
Mn1729    Cl1753   2.524       .  S
C1730      C2232   1.505       .  S
C1731      C2605   1.506       .  S
N1732      N1733   1.313       .  A
N1732      N1738   1.309       .  A
N1732     Mn1740   2.167       .  S
N1733      C1741   1.349       .  A
N1734      N1736   1.309       .  A
N1734      N1735   1.322       .  A
N1734     Mn1752   2.192       .  S
N1735      C1742   1.355       .  A
N1736      N1737   1.313       .  A
N1736     Mn1740   2.161       .  S
N1737      C1742   1.349       .  A
N1738      N1739   1.322       .  A
N1738     Mn1752   2.185       .  S
N1739      C1741   1.355       .  A
Mn1740    Cl1753   2.552       .  S
C1741      C2415   1.468       .  S
C1742      C2312   1.469       .  S
N1743      N1744   1.337       .  A
N1743      N1749   1.320       .  A
N1743     Mn1751   2.313       .  S
N1744      C1754   1.374       .  A
N1745      N1746   1.312       .  A
N1745      N1747   1.320       .  A
N1745     Mn1752   2.150       .  S
N1746      C1755   1.337       .  A
N1747      N1748   1.336       .  A
N1747     Mn1751   2.308       .  S
N1748      C1755   1.372       .  A
N1749      N1750   1.309       .  A
N1749     Mn1752   2.139       .  S
N1750      C1754   1.336       .  A
Mn1751    Cl1753   2.561       .  S
Mn1752    Cl1753   2.529       .  S
C1754      C2375   1.495       .  S
C1755      C2212   1.491       .  S
N1756      N1757   1.339       .  A
N1756      N1762   1.319       .  A
N1756     Mn1785   2.323       .  S
N1757      C1764   1.376       .  A
N1758      N1760   1.318       .  A
N1758      N1759   1.311       .  A
N1758     Mn1774   2.140       .  S
N1759      C1765   1.336       .  A
N1760      N1761   1.337       .  A
N1760     Mn1785   2.312       .  S
N1761      C1765   1.375       .  A
N1762      N1763   1.310       .  A
N1762     Mn1774   2.141       .  S
N1763      C1764   1.336       .  A
C1764      C4005   1.502       .  S
C1765      C2192   1.496       .  S
N1766      N1772   1.310       .  A
N1766      N1767   1.316       .  A
N1766     Mn1796   2.178       .  S
N1767      C1775   1.352       .  A
N1768      N1769   1.321       .  A
N1768      N1770   1.310       .  A
N1768     Mn1774   2.187       .  S
N1769      C1776   1.354       .  A
N1770      N1771   1.315       .  A
N1770     Mn1796   2.176       .  S
N1771      C1776   1.351       .  A
N1772      N1773   1.319       .  A
N1772     Mn1774   2.180       .  S
N1773      C1775   1.352       .  A
Mn1774    Cl1798   2.523       .  S
C1775      C2455   1.467       .  S
C1776      C2282   1.470       .  S
N1777      N1778   1.341       .  A
N1777      N1783   1.317       .  A
N1777     Mn1785   2.328       .  S
N1778      C1786   1.379       .  A
N1779      N1781   1.318       .  A
N1779      N1780   1.311       .  A
N1779     Mn1797   2.138       .  S
N1780      C1787   1.337       .  A
N1781      N1782   1.339       .  A
N1781     Mn1785   2.319       .  S
N1782      C1787   1.376       .  A
N1783      N1784   1.309       .  A
N1783     Mn1797   2.130       .  S
N1784      C1786   1.335       .  A
Mn1785    Cl1798   2.575       .  S
C1786      C2235   1.504       .  S
C1787      C3875   1.501       .  S
N1788      N1789   1.314       .  A
N1788      N1794   1.310       .  A
N1788     Mn1796   2.174       .  S
N1789      C1799   1.351       .  A
N1790      N1791   1.317       .  A
N1790      N1792   1.309       .  A
N1790     Mn1797   2.165       .  S
N1791      C1800   1.350       .  A
N1792      N1793   1.315       .  A
N1792     Mn1796   2.174       .  S
N1793      C1800   1.352       .  A
N1794      N1795   1.317       .  A
N1794     Mn1797   2.167       .  S
N1795      C1799   1.350       .  A
Mn1796    Cl1798   2.546       .  S
Mn1797    Cl1798   2.519       .  S
C1799      C2255   1.460       .  S
C1800      C2202   1.461       .  S
N1801      N1802   1.314       .  A
N1801      N1807   1.309       .  A
N1801     Mn1830   2.166       .  S
N1802      C1809   1.350       .  A
N1803      N1805   1.310       .  A
N1803      N1804   1.319       .  A
N1803     Mn1819   2.182       .  S
N1804      C1810   1.353       .  A
N1805      N1806   1.316       .  A
N1805     Mn1830   2.176       .  S
N1806      C1810   1.352       .  A
N1807      N1808   1.318       .  A
N1807     Mn1819   2.170       .  S
N1808      C1809   1.351       .  A
C1809      C2735   1.461       .  S
C1810      C2462   1.468       .  S
N1811      N1817   1.318       .  A
N1811      N1812   1.342       .  A
N1811     Mn1841   2.326       .  S
N1812      C1820   1.379       .  A
N1813      N1814   1.312       .  A
N1813      N1815   1.320       .  A
N1813     Mn1819   2.154       .  S
N1814      C1821   1.339       .  A
N1815      N1816   1.338       .  A
N1815     Mn1841   2.315       .  S
N1816      C1821   1.375       .  A
N1817      N1818   1.308       .  A
N1817     Mn1819   2.135       .  S
N1818      C1820   1.334       .  A
Mn1819    Cl1843   2.511       .  S
C1820      C2425   1.509       .  S
C1821      C3665   1.503       .  S
N1822      N1823   1.315       .  A
N1822      N1828   1.308       .  A
N1822     Mn1830   2.170       .  S
N1823      C1831   1.351       .  A
N1824      N1826   1.309       .  A
N1824      N1825   1.318       .  A
N1824     Mn1842   2.173       .  S
N1825      C1832   1.350       .  A
N1826      N1827   1.317       .  A
N1826     Mn1830   2.179       .  S
N1827      C1832   1.353       .  A
N1828      N1829   1.318       .  A
N1828     Mn1842   2.163       .  S
N1829      C1831   1.349       .  A
Mn1830    Cl1843   2.565       .  S
C1831      C2205   1.460       .  S
C1832      C2245   1.466       .  S
N1833      N1834   1.340       .  A
N1833      N1839   1.317       .  A
N1833     Mn1841   2.319       .  S
N1834      C1844   1.377       .  A
N1835      N1836   1.309       .  A
N1835      N1837   1.319       .  A
N1835     Mn1842   2.141       .  S
N1836      C1845   1.335       .  A
N1837      N1838   1.339       .  A
N1837     Mn1841   2.316       .  S
N1838      C1845   1.376       .  A
N1839      N1840   1.306       .  A
N1839     Mn1842   2.125       .  S
N1840      C1844   1.334       .  A
Mn1841    Cl1843   2.574       .  S
Mn1842    Cl1843   2.510       .  S
C1844      C3515   1.500       .  S
C1845      C2215   1.500       .  S
N1846      N1847   1.338       .  A
N1846      N1852   1.319       .  A
N1846     Mn1875   2.312       .  S
N1847      C1854   1.375       .  A
N1848      N1850   1.317       .  A
N1848      N1849   1.308       .  A
N1848     Mn1864   2.134       .  S
N1849      C1855   1.335       .  A
N1850      N1851   1.340       .  A
N1850     Mn1875   2.315       .  S
N1851      C1855   1.377       .  A
N1852      N1853   1.309       .  A
N1852     Mn1864   2.141       .  S
N1853      C1854   1.336       .  A
C1854      C2805   1.498       .  S
C1855      C2195   1.503       .  S
N1856      N1862   1.309       .  A
N1856      N1857   1.316       .  A
N1856     Mn1886   2.175       .  S
N1857      C1865   1.353       .  A
N1858      N1859   1.320       .  A
N1858      N1860   1.309       .  A
N1858     Mn1864   2.174       .  S
N1859      C1866   1.352       .  A
N1860      N1861   1.314       .  A
N1860     Mn1886   2.171       .  S
N1861      C1866   1.351       .  A
N1862      N1863   1.317       .  A
N1862     Mn1864   2.169       .  S
N1863      C1865   1.350       .  A
Mn1864    Cl1888   2.517       .  S
C1865      C2225   1.464       .  S
C1866      C2262   1.463       .  S
N1867      N1868   1.337       .  A
N1867      N1873   1.320       .  A
N1867     Mn1875   2.316       .  S
N1868      C1876   1.375       .  A
N1869      N1871   1.319       .  A
N1869      N1870   1.309       .  A
N1869     Mn1887   2.136       .  S
N1870      C1877   1.336       .  A
N1871      N1872   1.338       .  A
N1871     Mn1875   2.311       .  S
N1872      C1877   1.374       .  A
N1873      N1874   1.313       .  A
N1873     Mn1887   2.155       .  S
N1874      C1876   1.338       .  A
Mn1875    Cl1888   2.566       .  S
C1876      C2445   1.502       .  S
C1877      C2355   1.495       .  S
N1878      N1879   1.315       .  A
N1878      N1884   1.310       .  A
N1878     Mn1886   2.174       .  S
N1879      C1889   1.350       .  A
N1880      N1881   1.318       .  A
N1880      N1882   1.309       .  A
N1880     Mn1887   2.169       .  S
N1881      C1890   1.350       .  A
N1882      N1883   1.315       .  A
N1882     Mn1886   2.170       .  S
N1883      C1890   1.351       .  A
N1884      N1885   1.321       .  A
N1884     Mn1887   2.191       .  S
N1885      C1889   1.355       .  A
Mn1886    Cl1888   2.559       .  S
Mn1887    Cl1888   2.521       .  S
C1889      C2515   1.470       .  S
C1890      C2435   1.462       .  S
N1891      N1892   1.342       .  A
N1891      N1897   1.318       .  A
N1891     Mn1920   2.324       .  S
N1892      C1899   1.379       .  A
N1893      N1895   1.319       .  A
N1893      N1894   1.310       .  A
N1893     Mn1909   2.145       .  S
N1894      C1900   1.337       .  A
N1895      N1896   1.338       .  A
N1895     Mn1920   2.319       .  S
N1896      C1900   1.376       .  A
N1897      N1898   1.307       .  A
N1897     Mn1909   2.136       .  S
N1898      C1899   1.334       .  A
C1899      C3832   1.507       .  S
C1900      C3562   1.503       .  S
N1901      N1907   1.308       .  A
N1901      N1902   1.313   1_556  A
N1901     Mn1931   2.157       .  S
N1902      C1910   1.349   1_554  A
N1903      N1904   1.318       .  A
N1903      N1905   1.309       .  A
N1903     Mn1909   2.177       .  S
N1904      C1911   1.351       .  A
N1905      N1906   1.317   1_556  A
N1905     Mn1931   2.175       .  S
N1906      C1911   1.353   1_554  A
N1907      N1908   1.320       .  A
N1907     Mn1909   2.178       .  S
N1908      C1910   1.353       .  A
Mn1909    Cl1933   2.519       .  S
C1910      C2672   1.464   1_556  S
C1911      C2342   1.468   1_556  S
N1912      N1913   1.339       .  A
N1912      N1918   1.320       .  A
N1912     Mn1920   2.322       .  S
N1913      C1921   1.375       .  A
N1914      N1916   1.319       .  A
N1914      N1915   1.309       .  A
N1914     Mn1932   2.144       .  S
N1915      C1922   1.336       .  A
N1916      N1917   1.340       .  A
N1916     Mn1920   2.322       .  S
N1917      C1922   1.377       .  A
N1918      N1919   1.311       .  A
N1918     Mn1932   2.145       .  S
N1919      C1921   1.337       .  A
Mn1920    Cl1933   2.566       .  S
C1921      C3622   1.498       .  S
C1922      C3745   1.505       .  S
N1923      N1924   1.312   1_556  A
N1923      N1929   1.309       .  A
N1923     Mn1931   2.154       .  S
N1924      C1934   1.348   1_554  A
N1925      N1926   1.321       .  A
N1925      N1927   1.310       .  A
N1925     Mn1932   2.187       .  S
N1926      C1935   1.355       .  A
N1927      N1928   1.313       .  A
N1927     Mn1931   2.167       .  S
N1928      C1935   1.349       .  A
N1929      N1930   1.320       .  A
N1929     Mn1932   2.183       .  S
N1930      C1934   1.353       .  A
Mn1931    Cl1933   2.558       .  S
Mn1932    Cl1933   2.523       .  S
C1934      C2185   1.461   1_556  S
C1935      C2772   1.467   1_556  S
N1936      N1937   1.315   1_565  A
N1936      N1942   1.310       .  A
N1936     Mn1965   2.174       .  S
N1937      C1944   1.351   1_545  A
N1938      N1940   1.309       .  A
N1938      N1939   1.319       .  A
N1938     Mn1954   2.180       .  S
N1939      C1945   1.352       .  A
N1940      N1941   1.313       .  A
N1940     Mn1965   2.157       .  S
N1941      C1945   1.349       .  A
N1942      N1943   1.318       .  A
N1942     Mn1954   2.170       .  S
N1943      C1944   1.351       .  A
C1944      C2395   1.462   1_565  S
C1945      C2992   1.463   1_565  S
N1946      N1952   1.318       .  A
N1946      N1947   1.340       .  A
N1946     Mn1976   2.324       .  S
N1947      C1955   1.378       .  A
N1948      N1949   1.313       .  A
N1948      N1950   1.319       .  A
N1948     Mn1954   2.153       .  S
N1949      C1956   1.339       .  A
N1950      N1951   1.335       .  A
N1950     Mn1976   2.302       .  S
N1951      C1956   1.371       .  A
N1952      N1953   1.307       .  A
N1952     Mn1954   2.126       .  S
N1953      C1955   1.332       .  A
Mn1954    Cl1978   2.519       .  S
C1955      C3135   1.500       .  S
C1956      C4075   1.490       .  S
N1957      N1958   1.316       .  A
N1957      N1963   1.309       .  A
N1957     Mn1965   2.174       .  S
N1958      C1966   1.352       .  A
N1959      N1961   1.308       .  A
N1959      N1960   1.321       .  A
N1959     Mn1977   2.182       .  S
N1960      C1967   1.354       .  A
N1961      N1962   1.312       .  A
N1961     Mn1965   2.159       .  S
N1962      C1967   1.349       .  A
N1963      N1964   1.317       .  A
N1963     Mn1977   2.167       .  S
N1964      C1966   1.350       .  A
Mn1965    Cl1978   2.556       .  S
C1966      C2175   1.461       .  S
C1967      C2695   1.467   1_565  S
N1968      N1969   1.341       .  A
N1968      N1974   1.318       .  A
N1968     Mn1976   2.321       .  S
N1969      C1979   1.378       .  A
N1970      N1971   1.311       .  A
N1970      N1972   1.318       .  A
N1970     Mn1977   2.145       .  S
N1971      C1980   1.337       .  A
N1972      N1973   1.339       .  A
N1972     Mn1976   2.317       .  S
N1973      C1980   1.376       .  A
N1974      N1975   1.307       .  A
N1974     Mn1977   2.131       .  S
N1975      C1979   1.334       .  A
Mn1976    Cl1978   2.563       .  S
Mn1977    Cl1978   2.518       .  S
C1979      C3992   1.504       .  S
C1980      C3025   1.504       .  S
N1981      N1982   1.315       .  A
N1981      N1987   1.309       .  A
N1981     Mn2010   2.172       .  S
N1982      C1989   1.352       .  A
N1983      N1985   1.309       .  A
N1983      N1984   1.320       .  A
N1983     Mn1999   2.176       .  S
N1984      C1990   1.353       .  A
N1985      N1986   1.313   1_556  A
N1985     Mn2010   2.167       .  S
N1986      C1990   1.350   1_554  A
N1987      N1988   1.320       .  A
N1987     Mn1999   2.184       .  S
N1988      C1989   1.353       .  A
C1989      C2852   1.469   1_556  S
C1990      C2165   1.466   1_556  S
N1991      N1997   1.320       .  A
N1991      N1992   1.341       .  A
N1991     Mn2021   2.330       .  S
N1992      C2000   1.378       .  A
N1993      N1994   1.309       .  A
N1993      N1995   1.319       .  A
N1993     Mn1999   2.141       .  S
N1994      C2001   1.335       .  A
N1995      N1996   1.344       .  A
N1995     Mn2021   2.341       .  S
N1996      C2001   1.381       .  A
N1997      N1998   1.312       .  A
N1997     Mn1999   2.153       .  S
N1998      C2000   1.338       .  A
Mn1999    Cl2023   2.516       .  S
C2000      C3385   1.512       .  S
C2001      C3982   1.514       .  S
N2002      N2003   1.317   1_556  A
N2002      N2008   1.309       .  A
N2002     Mn2010   2.178       .  S
N2003      C2011   1.352   1_554  A
N2004      N2006   1.308       .  A
N2004      N2005   1.321       .  A
N2004     Mn2022   2.179       .  S
N2005      C2012   1.354       .  A
N2006      N2007   1.314       .  A
N2006     Mn2010   2.172       .  S
N2007      C2012   1.351       .  A
N2008      N2009   1.320       .  A
N2008     Mn2022   2.181       .  S
N2009      C2011   1.353       .  A
Mn2010    Cl2023   2.564       .  S
C2011      C2585   1.470   1_556  S
C2012      C2365   1.468   1_556  S
N2013      N2014   1.341       .  A
N2013      N2019   1.320       .  A
N2013     Mn2021   2.325       .  S
N2014      C2024   1.378       .  A
N2015      N2016   1.307       .  A
N2015      N2017   1.319       .  A
N2015     Mn2022   2.127       .  S
N2016      C2025   1.331       .  A
N2017      N2018   1.344       .  A
N2017     Mn2021   2.348       .  S
N2018      C2025   1.382       .  A
N2019      N2020   1.307       .  A
N2019     Mn2022   2.139       .  S
N2020      C2024   1.335       .  A
Mn2021    Cl2023   2.576       .  S
Mn2022    Cl2023   2.518       .  S
C2024      C3925   1.503       .  S
C2025      C3475   1.510       .  S
N2026      N2027   1.338       .  A
N2026      N2032   1.319       .  A
N2026     Mn2055   2.320       .  S
N2027      C2034   1.375       .  A
N2028      N2030   1.319       .  A
N2028      N2029   1.310       .  A
N2028     Mn2044   2.142       .  S
N2029      C2035   1.337       .  A
N2030      N2031   1.338       .  A
N2030     Mn2055   2.314       .  S
N2031      C2035   1.376       .  A
N2032      N2033   1.309       .  A
N2032     Mn2044   2.132       .  S
N2033      C2034   1.334       .  A
C2034      C3422   1.491       .  S
C2035      C3272   1.501       .  S
N2036      N2042   1.308       .  A
N2036      N2037   1.313       .  A
N2036     Mn2066   2.163       .  S
N2037      C2045   1.350       .  A
N2038      N2039   1.319       .  A
N2038      N2040   1.310       .  A
N2038     Mn2044   2.179       .  S
N2039      C2046   1.352       .  A
N2040      N2041   1.315       .  A
N2040     Mn2066   2.174       .  S
N2041      C2046   1.351       .  A
N2042      N2043   1.319       .  A
N2042     Mn2044   2.169       .  S
N2043      C2045   1.352       .  A
Mn2044    Cl2068   2.519       .  S
C2045      C2832   1.460       .  S
C2046      C2595   1.466       .  S
N2047      N2048   1.339       .  A
N2047      N2053   1.318       .  A
N2047     Mn2055   2.311       .  S
N2048      C2056   1.376       .  A
N2049      N2051   1.319       .  A
N2049      N2050   1.307       .  A
N2049     Mn2067   2.132       .  S
N2050      C2057   1.334       .  A
N2051      N2052   1.340       .  A
N2051     Mn2055   2.325       .  S
N2052      C2057   1.378       .  A
N2053      N2054   1.309       .  A
N2053     Mn2067   2.141       .  S
N2054      C2056   1.336       .  A
Mn2055    Cl2068   2.567       .  S
C2056      C3335   1.500       .  S
C2057      C3395   1.502       .  S
N2058      N2059   1.313       .  A
N2058      N2064   1.309       .  A
N2058     Mn2066   2.166       .  S
N2059      C2069   1.350       .  A
N2060      N2061   1.318       .  A
N2060      N2062   1.309       .  A
N2060     Mn2067   2.171       .  S
N2061      C2070   1.351       .  A
N2062      N2063   1.316       .  A
N2062     Mn2066   2.176       .  S
N2063      C2070   1.353       .  A
N2064      N2065   1.321       .  A
N2064     Mn2067   2.182       .  S
N2065      C2069   1.354       .  A
Mn2066    Cl2068   2.557       .  S
Mn2067    Cl2068   2.516       .  S
C2069      C2162   1.468   1_655  S
C2070      C2875   1.467       .  S
N2071      N2072   1.338       .  A
N2071      N2077   1.319       .  A
N2071     Mn2100   2.322       .  S
N2072      C2079   1.376       .  A
N2073      N2075   1.317       .  A
N2073      N2074   1.306       .  A
N2073     Mn2089   2.126       .  S
N2074      C2080   1.333       .  A
N2075      N2076   1.341       .  A
N2075     Mn2100   2.322       .  S
N2076      C2080   1.378       .  A
N2077      N2078   1.310       .  A
N2077     Mn2089   2.133       .  S
N2078      C2079   1.335       .  A
C2079      C3715   1.497       .  S
C2080      C3075   1.503       .  S
N2081      N2087   1.308       .  A
N2081      N2082   1.316       .  A
N2081     Mn2111   2.178       .  S
N2082      C2090   1.353       .  A
N2083      N2084   1.317       .  A
N2083      N2085   1.309       .  A
N2083     Mn2089   2.166       .  S
N2084      C2091   1.350       .  A
N2085      N2086   1.316       .  A
N2085     Mn2111   2.172       .  S
N2086      C2091   1.352       .  A
N2087      N2088   1.318       .  A
N2087     Mn2089   2.166       .  S
N2088      C2090   1.350       .  A
Mn2089    Cl2113   2.519       .  S
C2090      C2985   1.465       .  S
C2091      C2632   1.461       .  S
N2092      N2093   1.340       .  A
N2092      N2098   1.319       .  A
N2092     Mn2100   2.324       .  S
N2093      C2101   1.377       .  A
N2094      N2096   1.319       .  A
N2094      N2095   1.312       .  A
N2094     Mn2112   2.148       .  S
N2095      C2102   1.338       .  A
N2096      N2097   1.339       .  A
N2096     Mn2100   2.321       .  S
N2097      C2102   1.376       .  A
N2098      N2099   1.311       .  A
N2098     Mn2112   2.152       .  S
N2099      C2101   1.338       .  A
Mn2100    Cl2113   2.565       .  S
C2101      C3035   1.508       .  S
C2102      C3635   1.504       .  S
N2103      N2104   1.315       .  A
N2103      N2109   1.310       .  A
N2103     Mn2111   2.172       .  S
N2104      C2114   1.350       .  A
N2105      N2106   1.318       .  A
N2105      N2107   1.309       .  A
N2105     Mn2112   2.174       .  S
N2106      C2115   1.351       .  A
N2107      N2108   1.314       .  A
N2107     Mn2111   2.165       .  S
N2108      C2115   1.350       .  A
N2109      N2110   1.321       .  A
N2109     Mn2112   2.188       .  S
N2110      C2114   1.354       .  A
Mn2111    Cl2113   2.558       .  S
Mn2112    Cl2113   2.520       .  S
C2114      C2712   1.468       .  S
C2115      C2172   1.461       .  S
N2116      N2117   1.315       .  A
N2116      N2122   1.309       .  A
N2116     Mn2145   2.172       .  S
N2117      C2124   1.352       .  A
N2118      N2120   1.310       .  A
N2118      N2119   1.317       .  A
N2118     Mn2134   2.168       .  S
N2119      C2125   1.350       .  A
N2120      N2121   1.316       .  A
N2120     Mn2145   2.172       .  S
N2121      C2125   1.351       .  A
N2122      N2123   1.318       .  A
N2122     Mn2134   2.173       .  S
N2123      C2124   1.351       .  A
C2124      C2335   1.464       .  S
C2125      C2932   1.459   1_565  S
N2126      N2132   1.319       .  A
N2126      N2127   1.337       .  A
N2126     Mn2156   2.317       .  S
N2127      C2135   1.375       .  A
N2128      N2129   1.308       .  A
N2128      N2130   1.318       .  A
N2128     Mn2134   2.134       .  S
N2129      C2136   1.336       .  A
N2130      N2131   1.340       .  A
N2130     Mn2156   2.317       .  S
N2131      C2136   1.377       .  A
N2132      N2133   1.311       .  A
N2132     Mn2134   2.146       .  S
N2133      C2135   1.338       .  A
Mn2134    Cl2158   2.511       .  S
C2135      C3205   1.502       .  S
C2136      C3785   1.502       .  S
N2137      N2138   1.316   1_565  A
N2137      N2143   1.309       .  A
N2137     Mn2145   2.175       .  S
N2138      C2146   1.352   1_545  A
N2139      N2141   1.308       .  A
N2139      N2140   1.317       .  A
N2139     Mn2157   2.167       .  S
N2140      C2147   1.350       .  A
N2141      N2142   1.316       .  A
N2141     Mn2145   2.172       .  S
N2142      C2147   1.352       .  A
N2143      N2144   1.317       .  A
N2143     Mn2157   2.169       .  S
N2144      C2146   1.351       .  A
Mn2145    Cl2158   2.564       .  S
C2146      C2782   1.463   1_565  S
C2147      C2182   1.462       .  S
N2148      N2149   1.338       .  A
N2148      N2154   1.318       .  A
N2148     Mn2156   2.308       .  S
N2149      C2159   1.376       .  A
N2150      N2151   1.309       .  A
N2150      N2152   1.318       .  A
N2150     Mn2157   2.134       .  S
N2151      C2160   1.335       .  A
N2152      N2153   1.340       .  A
N2152     Mn2156   2.325       .  S
N2153      C2160   1.378       .  A
N2154      N2155   1.308       .  A
N2154     Mn2157   2.133       .  S
N2155      C2159   1.334       .  A
Mn2156    Cl2158   2.570       .  S
Mn2157    Cl2158   2.508       .  S
C2159      C3755   1.497       .  S
C2160      C3355   1.505       .  S
C2161      C2162   1.401       .  A
C2161      C2166   1.386       .  A
C2161      H2168   1.084       .  S
C2162      C2163   1.407   1_455  A
C2163      C2164   1.398   1_655  A
C2163      F2170   1.357       .  S
C2164      C2165   1.404       .  A
C2164      H2169   1.083   1_554  S
C2165      C2166   1.404       .  A
C2166      F2167   1.357       .  S
C2171      C2172   1.402   1_455  A
C2171      C2176   1.389       .  A
C2171      H2178   1.084       .  S
C2172      C2173   1.405       .  A
C2173      C2174   1.393   1_645  A
C2173      F2180   1.358       .  S
C2174      C2175   1.403       .  A
C2174      H2179   1.083       .  S
C2175      C2176   1.403   1_565  A
C2176      F2177   1.357       .  S
C2181      C2182   1.404       .  A
C2181      C2186   1.394   1_565  A
C2181      H2188   1.083       .  S
C2182      C2183   1.402   1_565  A
C2183      C2184   1.388       .  A
C2183      F2190   1.357       .  S
C2184      C2185   1.402       .  A
C2184      H2189   1.084       .  S
C2185      C2186   1.403       .  A
C2186      F2187   1.357   1_554  S
C2191      C2192   1.419       .  A
C2191      C2196   1.410       .  A
C2191      H2198   1.083       .  S
C2192      C2193   1.397       .  A
C2193      C2194   1.403       .  A
C2193      F2200   1.357       .  S
C2194      C2195   1.421       .  A
C2194      H2199   1.083       .  S
C2195      C2196   1.401       .  A
C2196      F2197   1.357       .  S
C2201      C2202   1.403       .  A
C2201      C2206   1.394       .  A
C2201      H2208   1.083       .  S
C2202      C2203   1.402       .  A
C2203      C2204   1.388       .  A
C2203      F2210   1.357       .  S
C2204      C2205   1.400       .  A
C2204      H2209   1.084       .  S
C2205      C2206   1.405       .  A
C2206      F2207   1.358       .  S
C2211      C2212   1.396       .  A
C2211      C2216   1.404       .  A
C2211      H2218   1.083       .  S
C2212      C2213   1.418       .  A
C2213      C2214   1.409       .  A
C2213      F2220   1.357       .  S
C2214      C2215   1.400       .  A
C2214      H2219   1.083       .  S
C2215      C2216   1.423       .  A
C2216      F2217   1.358       .  S
C2221      C2222   1.402       .  A
C2221      C2226   1.394       .  A
C2221      H2228   1.083       .  S
C2222      C2223   1.406       .  A
C2223      C2224   1.388       .  A
C2223      F2230   1.358       .  S
C2224      C2225   1.400       .  A
C2224      H2229   1.083       .  S
C2225      C2226   1.407       .  A
C2226      F2227   1.357       .  S
C2231      C2232   1.422       .  A
C2231      C2236   1.408       .  A
C2231      H2238   1.083       .  S
C2232      C2233   1.400       .  A
C2233      C2234   1.409       .  A
C2233      F2240   1.357       .  S
C2234      C2235   1.422       .  A
C2234      H2239   1.083       .  S
C2235      C2236   1.399       .  A
C2236      F2237   1.357       .  S
C2241      C2242   1.402       .  A
C2241      C2246   1.394       .  A
C2241      H2248   1.083       .  S
C2242      C2243   1.404       .  A
C2243      C2244   1.391       .  A
C2243      F2250   1.358       .  S
C2244      C2245   1.402       .  A
C2244      H2249   1.084       .  S
C2245      C2246   1.407       .  A
C2246      F2247   1.357       .  S
C2251      C2252   1.402       .  A
C2251      C2256   1.393       .  A
C2251      H2258   1.083       .  S
C2252      C2253   1.403       .  A
C2253      C2254   1.388       .  A
C2253      F2260   1.358       .  S
C2254      C2255   1.400       .  A
C2254      H2259   1.084       .  S
C2255      C2256   1.406       .  A
C2256      F2257   1.358       .  S
C2261      C2262   1.403       .  A
C2261      C2266   1.396       .  A
C2261      H2268   1.083       .  S
C2262      C2263   1.403       .  A
C2263      C2264   1.388       .  A
C2263      F2270   1.357       .  S
C2264      C2265   1.400       .  A
C2264      H2269   1.084       .  S
C2265      C2266   1.407       .  A
C2266      F2267   1.358       .  S
C2271      C2272   1.402       .  A
C2271      C2276   1.389       .  A
C2271      H2278   1.084       .  S
C2272      C2273   1.407       .  A
C2273      C2274   1.396       .  A
C2273      F2280   1.357       .  S
C2274      C2275   1.403       .  A
C2274      H2279   1.083       .  S
C2275      C2276   1.405       .  A
C2276      F2277   1.358       .  S
C2281      C2282   1.404       .  A
C2281      C2286   1.398       .  A
C2281      H2288   1.083       .  S
C2282      C2283   1.405       .  A
C2283      C2284   1.390       .  A
C2283      F2290   1.358       .  S
C2284      C2285   1.401       .  A
C2284      H2289   1.083       .  S
C2285      C2286   1.407       .  A
C2286      F2287   1.358       .  S
C2291      C2292   1.403       .  A
C2291      C2296   1.394       .  A
C2291      H2298   1.083       .  S
C2292      C2293   1.405       .  A
C2293      C2294   1.388       .  A
C2293      F2300   1.358       .  S
C2294      C2295   1.402       .  A
C2294      H2299   1.084       .  S
C2295      C2296   1.405       .  A
C2296      F2297   1.357       .  S
C2301      C2302   1.401       .  A
C2301      C2306   1.391       .  A
C2301      H2308   1.083       .  S
C2302      C2303   1.403       .  A
C2303      C2304   1.390       .  A
C2303      F2310   1.357       .  S
C2304      C2305   1.400       .  A
C2304      H2309   1.084       .  S
C2305      C2306   1.406       .  A
C2306      F2307   1.358       .  S
C2311      C2312   1.403       .  A
C2311      C2316   1.389       .  A
C2311      H2318   1.084       .  S
C2312      C2313   1.405       .  A
C2313      C2314   1.398       .  A
C2313      F2320   1.357       .  S
C2314      C2315   1.405       .  A
C2314      H2319   1.083       .  S
C2315      C2316   1.404       .  A
C2316      F2317   1.358       .  S
C2321      C2322   1.395       .  A
C2321      C2326   1.406       .  A
C2321      H2328   1.083       .  S
C2322      C2323   1.426       .  A
C2323      C2324   1.409       .  A
C2323      F2330   1.358       .  S
C2324      C2325   1.398       .  A
C2324      H2329   1.083       .  S
C2325      C2326   1.427       .  A
C2326      F2327   1.357       .  S
C2331      C2332   1.401       .  A
C2331      C2336   1.388       .  A
C2331      H2338   1.083       .  S
C2332      C2333   1.405       .  A
C2333      C2334   1.394   1_545  A
C2333      F2340   1.357       .  S
C2334      C2335   1.404       .  A
C2334      H2339   1.083       .  S
C2335      C2336   1.403   1_565  A
C2336      F2337   1.357       .  S
C2341      C2342   1.402       .  A
C2341      C2346   1.391       .  A
C2341      H2348   1.084       .  S
C2342      C2343   1.407       .  A
C2343      C2344   1.394       .  A
C2343      F2350   1.357   1_554  S
C2344      C2345   1.402       .  A
C2344      H2349   1.083       .  S
C2345      C2346   1.405       .  A
C2346      F2347   1.358       .  S
C2351      C2352   1.421       .  A
C2351      C2356   1.406       .  A
C2351      H2358   1.083       .  S
C2352      C2353   1.399       .  A
C2353      C2354   1.405       .  A
C2353      F2360   1.357       .  S
C2354      C2355   1.418       .  A
C2354      H2359   1.083       .  S
C2355      C2356   1.399       .  A
C2356      F2357   1.357       .  S
C2361      C2362   1.404       .  A
C2361      C2366   1.398       .  A
C2361      H2368   1.083       .  S
C2362      C2363   1.402       .  A
C2363      C2364   1.389       .  A
C2363      F2370   1.358       .  S
C2364      C2365   1.402       .  A
C2364      H2369   1.084       .  S
C2365      C2366   1.407       .  A
C2366      F2367   1.357   1_554  S
C2371      C2372   1.419       .  A
C2371      C2376   1.404       .  A
C2371      H2378   1.083       .  S
C2372      C2373   1.398       .  A
C2373      C2374   1.404       .  A
C2373      F2380   1.357       .  S
C2374      C2375   1.420       .  A
C2374      H2379   1.083       .  S
C2375      C2376   1.398       .  A
C2376      F2377   1.357       .  S
C2381      C2382   1.420       .  A
C2381      C2386   1.405       .  A
C2381      H2388   1.083       .  S
C2382      C2383   1.401       .  A
C2383      C2384   1.410       .  A
C2383      F2390   1.357       .  S
C2384      C2385   1.420       .  A
C2384      H2389   1.083       .  S
C2385      C2386   1.399       .  A
C2386      F2387   1.357       .  S
C2391      C2392   1.400       .  A
C2391      C2396   1.387       .  A
C2391      H2398   1.084       .  S
C2392      C2393   1.406       .  A
C2393      C2394   1.393       .  A
C2393      F2400   1.358       .  S
C2394      C2395   1.402       .  A
C2394      H2399   1.083   1_545  S
C2395      C2396   1.403       .  A
C2396      F2397   1.355       .  S
C2401      C2402   1.402       .  A
C2401      C2406   1.394       .  A
C2401      H2408   1.083       .  S
C2402      C2403   1.407       .  A
C2403      C2404   1.392       .  A
C2403      F2410   1.358       .  S
C2404      C2405   1.402       .  A
C2404      H2409   1.083       .  S
C2405      C2406   1.407       .  A
C2406      F2407   1.357       .  S
C2411      C2412   1.404       .  A
C2411      C2416   1.397       .  A
C2411      H2418   1.083       .  S
C2412      C2413   1.406       .  A
C2413      C2414   1.388       .  A
C2413      F2420   1.358       .  S
C2414      C2415   1.402       .  A
C2414      H2419   1.083       .  S
C2415      C2416   1.405       .  A
C2416      F2417   1.357       .  S
C2421      C2422   1.394       .  A
C2421      C2426   1.404       .  A
C2421      H2428   1.083       .  S
C2422      C2423   1.422       .  A
C2423      C2424   1.411       .  A
C2423      F2430   1.357       .  S
C2424      C2425   1.400       .  A
C2424      H2429   1.083       .  S
C2425      C2426   1.427       .  A
C2426      F2427   1.357       .  S
C2431      C2432   1.401       .  A
C2431      C2436   1.389       .  A
C2431      H2438   1.084       .  S
C2432      C2433   1.406       .  A
C2433      C2434   1.393       .  A
C2433      F2440   1.358       .  S
C2434      C2435   1.402       .  A
C2434      H2439   1.083       .  S
C2435      C2436   1.403       .  A
C2436      F2437   1.358       .  S
C2441      C2442   1.421       .  A
C2441      C2446   1.404       .  A
C2441      H2448   1.083       .  S
C2442      C2443   1.402       .  A
C2443      C2444   1.412       .  A
C2443      F2450   1.357       .  S
C2444      C2445   1.421       .  A
C2444      H2449   1.083       .  S
C2445      C2446   1.398       .  A
C2446      F2447   1.357       .  S
C2451      C2452   1.402       .  A
C2451      C2456   1.390       .  A
C2451      H2458   1.084       .  S
C2452      C2453   1.405       .  A
C2453      C2454   1.396       .  A
C2453      F2460   1.357       .  S
C2454      C2455   1.404       .  A
C2454      H2459   1.083       .  S
C2455      C2456   1.404       .  A
C2456      F2457   1.357       .  S
C2461      C2462   1.404       .  A
C2461      C2466   1.395       .  A
C2461      H2468   1.083       .  S
C2462      C2463   1.404       .  A
C2463      C2464   1.391       .  A
C2463      F2470   1.358       .  S
C2464      C2465   1.403       .  A
C2464      H2469   1.084       .  S
C2465      C2466   1.406       .  A
C2466      F2467   1.357       .  S
C2471      C2472   1.397       .  A
C2471      C2476   1.407       .  A
C2471      H2478   1.083       .  S
C2472      C2473   1.427       .  A
C2473      C2474   1.410       .  A
C2473      F2480   1.357       .  S
C2474      C2475   1.398       .  A
C2474      H2479   1.083       .  S
C2475      C2476   1.423       .  A
C2476      F2477   1.357       .  S
C2481      C2482   1.401       .  A
C2481      C2486   1.389       .  A
C2481      H2488   1.084       .  S
C2482      C2483   1.405       .  A
C2483      C2484   1.397       .  A
C2483      F2490   1.357       .  S
C2484      C2485   1.404       .  A
C2484      H2489   1.083       .  S
C2485      C2486   1.404       .  A
C2486      F2487   1.358       .  S
C2491      C2492   1.397       .  A
C2491      C2496   1.406       .  A
C2491      H2498   1.083       .  S
C2492      C2493   1.424       .  A
C2493      C2494   1.404       .  A
C2493      F2500   1.358       .  S
C2494      C2495   1.396       .  A
C2494      H2499   1.083       .  S
C2495      C2496   1.425       .  A
C2496      F2497   1.357       .  S
C2501      C2502   1.421       .  A
C2501      C2506   1.406       .  A
C2501      H2508   1.083       .  S
C2502      C2503   1.400       .  A
C2503      C2504   1.408       .  A
C2503      F2510   1.357       .  S
C2504      C2505   1.421       .  A
C2504      H2509   1.083       .  S
C2505      C2506   1.398       .  A
C2506      F2507   1.357       .  S
C2511      C2512   1.401       .  A
C2511      C2516   1.390       .  A
C2511      H2518   1.083       .  S
C2512      C2513   1.408       .  A
C2513      C2514   1.397       .  A
C2513      F2520   1.357       .  S
C2514      C2515   1.403       .  A
C2514      H2519   1.083       .  S
C2515      C2516   1.406       .  A
C2516      F2517   1.357       .  S
C2521      C2522   1.401       .  A
C2521      C2526   1.389       .  A
C2521      H2528   1.084       .  S
C2522      C2523   1.407       .  A
C2523      C2524   1.394       .  A
C2523      F2530   1.358       .  S
C2524      C2525   1.402       .  A
C2524      H2529   1.083       .  S
C2525      C2526   1.403       .  A
C2526      F2527   1.358       .  S
C2531      C2532   1.401       .  A
C2531      C2536   1.388       .  A
C2531      H2538   1.084       .  S
C2532      C2533   1.406       .  A
C2533      C2534   1.398       .  A
C2533      F2540   1.358       .  S
C2534      C2535   1.405       .  A
C2534      H2539   1.083       .  S
C2535      C2536   1.403       .  A
C2536      F2537   1.358       .  S
C2541      C2542   1.400       .  A
C2541      C2546   1.393       .  A
C2541      H2548   1.083       .  S
C2542      C2543   1.404       .  A
C2543      C2544   1.391       .  A
C2543      F2550   1.358       .  S
C2544      C2545   1.401       .  A
C2544      H2549   1.084       .  S
C2545      C2546   1.408       .  A
C2546      F2547   1.358       .  S
C2551      C2552   1.403       .  A
C2551      C2556   1.394       .  A
C2551      H2558   1.083       .  S
C2552      C2553   1.405       .  A
C2553      C2554   1.390       .  A
C2553      F2560   1.358       .  S
C2554      C2555   1.402       .  A
C2554      H2559   1.084       .  S
C2555      C2556   1.406       .  A
C2556      F2557   1.357       .  S
C2561      C2562   1.396       .  A
C2561      C2566   1.403       .  A
C2561      H2568   1.083       .  S
C2562      C2563   1.418       .  A
C2563      C2564   1.409       .  A
C2563      F2570   1.357       .  S
C2564      C2565   1.400       .  A
C2564      H2569   1.083       .  S
C2565      C2566   1.422       .  A
C2566      F2567   1.358       .  S
C2571      C2572   1.422       .  A
C2571      C2576   1.403       .  A
C2571      H2578   1.083       .  S
C2572      C2573   1.399       .  A
C2573      C2574   1.407       .  A
C2573      F2580   1.356       .  S
C2574      C2575   1.419       .  A
C2574      H2579   1.083       .  S
C2575      C2576   1.397       .  A
C2576      F2577   1.357       .  S
C2581      C2582   1.402       .  A
C2581      C2586   1.392       .  A
C2581      H2588   1.083       .  S
C2582      C2583   1.407       .  A
C2583      C2584   1.397       .  A
C2583      F2590   1.357       .  S
C2584      C2585   1.403       .  A
C2584      H2589   1.083   1_554  S
C2585      C2586   1.404       .  A
C2586      F2587   1.356       .  S
C2591      C2592   1.403       .  A
C2591      C2596   1.394   1_455  A
C2591      H2598   1.083       .  S
C2592      C2593   1.403       .  A
C2593      C2594   1.390       .  A
C2593      F2600   1.358       .  S
C2594      C2595   1.403   1_455  A
C2594      H2599   1.084       .  S
C2595      C2596   1.406       .  A
C2596      F2597   1.357       .  S
C2601      C2602   1.397       .  A
C2601      C2606   1.408       .  A
C2601      H2608   1.083       .  S
C2602      C2603   1.425       .  A
C2603      C2604   1.408       .  A
C2603      F2610   1.358       .  S
C2604      C2605   1.398       .  A
C2604      H2609   1.083       .  S
C2605      C2606   1.426       .  A
C2606      F2607   1.357       .  S
C2611      C2612   1.401       .  A
C2611      C2616   1.387       .  A
C2611      H2618   1.084       .  S
C2612      C2613   1.406       .  A
C2613      C2614   1.395       .  A
C2613      F2620   1.358       .  S
C2614      C2615   1.404       .  A
C2614      H2619   1.083       .  S
C2615      C2616   1.405       .  A
C2616      F2617   1.358       .  S
C2621      C2622   1.422       .  A
C2621      C2626   1.406       .  A
C2621      H2628   1.083       .  S
C2622      C2623   1.399       .  A
C2623      C2624   1.407       .  A
C2623      F2630   1.357       .  S
C2624      C2625   1.421       .  A
C2624      H2629   1.083       .  S
C2625      C2626   1.398       .  A
C2626      F2627   1.357       .  S
C2631      C2632   1.401   1_455  A
C2631      C2636   1.390       .  A
C2631      H2638   1.083       .  S
C2632      C2633   1.405       .  A
C2633      C2634   1.392   1_655  A
C2633      F2640   1.358       .  S
C2634      C2635   1.402       .  A
C2634      H2639   1.083       .  S
C2635      C2636   1.403       .  A
C2636      F2637   1.357       .  S
C2641      C2642   1.421       .  A
C2641      C2646   1.405       .  A
C2641      H2648   1.083       .  S
C2642      C2643   1.400       .  A
C2643      C2644   1.407       .  A
C2643      F2650   1.357       .  S
C2644      C2645   1.421       .  A
C2644      H2649   1.083       .  S
C2645      C2646   1.398       .  A
C2646      F2647   1.357       .  S
C2651      C2652   1.403       .  A
C2651      C2656   1.395       .  A
C2651      H2658   1.083       .  S
C2652      C2653   1.403       .  A
C2653      C2654   1.386       .  A
C2653      F2660   1.356       .  S
C2654      C2655   1.400       .  A
C2654      H2659   1.084       .  S
C2655      C2656   1.406       .  A
C2656      F2657   1.357       .  S
C2661      C2662   1.421       .  A
C2661      C2666   1.407       .  A
C2661      H2668   1.083       .  S
C2662      C2663   1.401       .  A
C2663      C2664   1.409       .  A
C2663      F2670   1.357       .  S
C2664      C2665   1.420       .  A
C2664      H2669   1.083       .  S
C2665      C2666   1.399       .  A
C2666      F2667   1.357       .  S
C2671      C2672   1.402       .  A
C2671      C2676   1.388       .  A
C2671      H2678   1.083       .  S
C2672      C2673   1.404       .  A
C2673      C2674   1.395       .  A
C2673      F2680   1.357   1_554  S
C2674      C2675   1.404       .  A
C2674      H2679   1.083       .  S
C2675      C2676   1.404       .  A
C2676      F2677   1.358       .  S
C2681      C2682   1.402       .  A
C2681      C2686   1.390       .  A
C2681      H2688   1.084       .  S
C2682      C2683   1.406       .  A
C2683      C2684   1.394       .  A
C2683      F2690   1.358       .  S
C2684      C2685   1.403       .  A
C2684      H2689   1.083       .  S
C2685      C2686   1.403       .  A
C2686      F2687   1.358       .  S
C2691      C2692   1.400       .  A
C2691      C2696   1.385       .  A
C2691      H2698   1.084       .  S
C2692      C2693   1.406       .  A
C2693      C2694   1.398       .  A
C2693      F2700   1.357       .  S
C2694      C2695   1.404       .  A
C2694      H2699   1.083   1_545  S
C2695      C2696   1.405       .  A
C2696      F2697   1.356       .  S
C2701      C2702   1.402       .  A
C2701      C2706   1.387       .  A
C2701      H2708   1.084       .  S
C2702      C2703   1.405       .  A
C2703      C2704   1.395       .  A
C2703      F2710   1.357       .  S
C2704      C2705   1.404       .  A
C2704      H2709   1.083       .  S
C2705      C2706   1.402       .  A
C2706      F2707   1.357       .  S
C2711      C2712   1.403       .  A
C2711      C2716   1.396   1_655  A
C2711      H2718   1.083       .  S
C2712      C2713   1.406   1_655  A
C2713      C2714   1.390       .  A
C2713      F2720   1.358       .  S
C2714      C2715   1.402       .  A
C2714      H2719   1.084       .  S
C2715      C2716   1.407       .  A
C2716      F2717   1.357       .  S
C2721      C2722   1.402       .  A
C2721      C2726   1.389       .  A
C2721      H2728   1.084       .  S
C2722      C2723   1.404       .  A
C2723      C2724   1.394       .  A
C2723      F2730   1.358       .  S
C2724      C2725   1.405       .  A
C2724      H2729   1.083       .  S
C2725      C2726   1.403       .  A
C2726      F2727   1.357       .  S
C2731      C2732   1.404       .  A
C2731      C2736   1.395       .  A
C2731      H2738   1.083       .  S
C2732      C2733   1.403       .  A
C2733      C2734   1.387       .  A
C2733      F2740   1.355       .  S
C2734      C2735   1.400       .  A
C2734      H2739   1.084       .  S
C2735      C2736   1.406       .  A
C2736      F2737   1.357       .  S
C2741      C2742   1.401       .  A
C2741      C2746   1.397       .  A
C2741      H2748   1.083       .  S
C2742      C2743   1.405       .  A
C2743      C2744   1.388       .  A
C2743      F2750   1.356       .  S
C2744      C2745   1.400       .  A
C2744      H2749   1.084       .  S
C2745      C2746   1.408       .  A
C2746      F2747   1.357       .  S
C2751      C2752   1.403       .  A
C2751      C2756   1.390       .  A
C2751      H2758   1.084       .  S
C2752      C2753   1.405       .  A
C2753      C2754   1.394       .  A
C2753      F2760   1.357       .  S
C2754      C2755   1.403       .  A
C2754      H2759   1.083       .  S
C2755      C2756   1.405       .  A
C2756      F2757   1.358       .  S
C2761      C2762   1.404       .  A
C2761      C2766   1.395       .  A
C2761      H2768   1.083       .  S
C2762      C2763   1.403       .  A
C2763      C2764   1.388       .  A
C2763      F2770   1.358       .  S
C2764      C2765   1.402       .  A
C2764      H2769   1.084       .  S
C2765      C2766   1.406       .  A
C2766      F2767   1.357       .  S
C2771      C2772   1.402       .  A
C2771      C2776   1.397       .  A
C2771      H2778   1.083   1_554  S
C2772      C2773   1.405       .  A
C2773      C2774   1.389       .  A
C2773      F2780   1.358       .  S
C2774      C2775   1.402       .  A
C2774      H2779   1.084       .  S
C2775      C2776   1.408       .  A
C2776      F2777   1.357       .  S
C2781      C2782   1.403       .  A
C2781      C2786   1.393       .  A
C2781      H2788   1.083   1_545  S
C2782      C2783   1.403       .  A
C2783      C2784   1.389       .  A
C2783      F2790   1.356       .  S
C2784      C2785   1.401       .  A
C2784      H2789   1.084       .  S
C2785      C2786   1.406       .  A
C2786      F2787   1.358       .  S
C2791      C2792   1.421       .  A
C2791      C2796   1.409       .  A
C2791      H2798   1.083       .  S
C2792      C2793   1.397       .  A
C2793      C2794   1.406       .  A
C2793      F2800   1.357       .  S
C2794      C2795   1.421       .  A
C2794      H2799   1.083       .  S
C2795      C2796   1.400       .  A
C2796      F2797   1.357       .  S
C2801      C2802   1.397       .  A
C2801      C2806   1.406       .  A
C2801      H2808   1.083       .  S
C2802      C2803   1.426       .  A
C2803      C2804   1.404       .  A
C2803      F2810   1.358       .  S
C2804      C2805   1.395       .  A
C2804      H2809   1.083       .  S
C2805      C2806   1.423       .  A
C2806      F2807   1.357       .  S
C2811      C2812   1.404       .  A
C2811      C2816   1.396       .  A
C2811      H2818   1.083       .  S
C2812      C2813   1.404       .  A
C2813      C2814   1.388       .  A
C2813      F2820   1.356       .  S
C2814      C2815   1.401       .  A
C2814      H2819   1.084       .  S
C2815      C2816   1.406       .  A
C2816      F2817   1.357       .  S
C2821      C2822   1.401       .  A
C2821      C2826   1.389       .  A
C2821      H2828   1.084       .  S
C2822      C2823   1.406       .  A
C2823      C2824   1.390       .  A
C2823      F2830   1.358       .  S
C2824      C2825   1.401       .  A
C2824      H2829   1.084       .  S
C2825      C2826   1.401       .  A
C2826      F2827   1.356       .  S
C2831      C2832   1.401       .  A
C2831      C2836   1.393   1_655  A
C2831      H2838   1.083       .  S
C2832      C2833   1.403   1_655  A
C2833      C2834   1.388       .  A
C2833      F2840   1.356       .  S
C2834      C2835   1.399       .  A
C2834      H2839   1.084       .  S
C2835      C2836   1.407       .  A
C2836      F2837   1.358       .  S
C2841      C2842   1.401       .  A
C2841      C2846   1.388       .  A
C2841      H2848   1.084       .  S
C2842      C2843   1.406       .  A
C2843      C2844   1.392       .  A
C2843      F2850   1.357       .  S
C2844      C2845   1.402       .  A
C2844      H2849   1.083       .  S
C2845      C2846   1.404       .  A
C2846      F2847   1.358       .  S
C2851      C2852   1.405       .  A
C2851      C2856   1.398       .  A
C2851      H2858   1.083   1_554  S
C2852      C2853   1.404       .  A
C2853      C2854   1.390       .  A
C2853      F2860   1.358       .  S
C2854      C2855   1.403       .  A
C2854      H2859   1.083       .  S
C2855      C2856   1.405       .  A
C2856      F2857   1.357       .  S
C2861      C2862   1.403       .  A
C2861      C2866   1.395       .  A
C2861      H2868   1.083       .  S
C2862      C2863   1.405       .  A
C2863      C2864   1.387       .  A
C2863      F2870   1.358       .  S
C2864      C2865   1.402       .  A
C2864      H2869   1.084       .  S
C2865      C2866   1.406       .  A
C2866      F2867   1.357       .  S
C2871      C2872   1.403       .  A
C2871      C2876   1.389       .  A
C2871      H2878   1.083       .  S
C2872      C2873   1.404       .  A
C2873      C2874   1.396   1_455  A
C2873      F2880   1.357       .  S
C2874      C2875   1.405       .  A
C2874      H2879   1.083       .  S
C2875      C2876   1.403   1_655  A
C2876      F2877   1.356       .  S
C2881      C2882   1.399       .  A
C2881      C2886   1.410       .  A
C2881      H2888   1.083       .  S
C2882      C2883   1.425       .  A
C2883      C2884   1.409       .  A
C2883      F2890   1.357       .  S
C2884      C2885   1.399       .  A
C2884      H2889   1.083       .  S
C2885      C2886   1.424       .  A
C2886      F2887   1.357       .  S
C2891      C2892   1.398       .  A
C2891      C2896   1.407       .  A
C2891      H2898   1.083       .  S
C2892      C2893   1.426       .  A
C2893      C2894   1.406       .  A
C2893      F2900   1.357       .  S
C2894      C2895   1.396       .  A
C2894      H2899   1.083       .  S
C2895      C2896   1.424       .  A
C2896      F2897   1.357       .  S
C2901      C2902   1.402       .  A
C2901      C2906   1.394       .  A
C2901      H2908   1.083       .  S
C2902      C2903   1.404       .  A
C2903      C2904   1.388       .  A
C2903      F2910   1.356       .  S
C2904      C2905   1.400       .  A
C2904      H2909   1.084       .  S
C2905      C2906   1.407       .  A
C2906      F2907   1.358       .  S
C2911      C2912   1.401       .  A
C2911      C2916   1.392       .  A
C2911      H2918   1.084       .  S
C2912      C2913   1.407       .  A
C2913      C2914   1.395       .  A
C2913      F2920   1.357       .  S
C2914      C2915   1.402       .  A
C2914      H2919   1.083       .  S
C2915      C2916   1.406       .  A
C2916      F2917   1.358       .  S
C2921      C2922   1.405       .  A
C2921      C2926   1.397       .  A
C2921      H2928   1.083       .  S
C2922      C2923   1.405       .  A
C2923      C2924   1.388       .  A
C2923      F2930   1.358       .  S
C2924      C2925   1.402       .  A
C2924      H2929   1.084       .  S
C2925      C2926   1.405       .  A
C2926      F2927   1.357       .  S
C2931      C2932   1.401       .  A
C2931      C2936   1.392       .  A
C2931      H2938   1.083   1_545  S
C2932      C2933   1.402       .  A
C2933      C2934   1.389       .  A
C2933      F2940   1.357       .  S
C2934      C2935   1.402       .  A
C2934      H2939   1.084       .  S
C2935      C2936   1.406       .  A
C2936      F2937   1.358       .  S
C2941      C2942   1.397       .  A
C2941      C2946   1.409       .  A
C2941      H2948   1.083       .  S
C2942      C2943   1.426       .  A
C2943      C2944   1.404       .  A
C2943      F2950   1.357       .  S
C2944      C2945   1.395       .  A
C2944      H2949   1.083       .  S
C2945      C2946   1.426       .  A
C2946      F2947   1.357       .  S
C2951      C2952   1.421       .  A
C2951      C2956   1.406       .  A
C2951      H2958   1.083       .  S
C2952      C2953   1.400       .  A
C2953      C2954   1.410       .  A
C2953      F2960   1.357       .  S
C2954      C2955   1.422       .  A
C2954      H2959   1.083       .  S
C2955      C2956   1.398       .  A
C2956      F2957   1.357       .  S
C2961      C2962   1.405       .  A
C2961      C2966   1.399       .  A
C2961      H2968   1.083       .  S
C2962      C2963   1.403       .  A
C2963      C2964   1.388       .  A
C2963      F2970   1.356       .  S
C2964      C2965   1.401       .  A
C2964      H2969   1.084       .  S
C2965      C2966   1.407       .  A
C2966      F2967   1.357       .  S
C2971      C2972   1.401       .  A
C2971      C2976   1.389       .  A
C2971      H2978   1.083       .  S
C2972      C2973   1.406       .  A
C2973      C2974   1.396       .  A
C2973      F2980   1.357       .  S
C2974      C2975   1.404       .  A
C2974      H2979   1.083       .  S
C2975      C2976   1.403       .  A
C2976      F2977   1.356       .  S
C2981      C2982   1.402       .  A
C2981      C2986   1.396   1_455  A
C2981      H2988   1.083       .  S
C2982      C2983   1.402       .  A
C2983      C2984   1.387       .  A
C2983      F2990   1.354       .  S
C2984      C2985   1.399   1_455  A
C2984      H2989   1.084       .  S
C2985      C2986   1.408       .  A
C2986      F2987   1.357       .  S
C2991      C2992   1.402       .  A
C2991      C2996   1.388       .  A
C2991      H2998   1.083       .  S
C2992      C2993   1.404   1_545  A
C2993      C2994   1.392   1_565  A
C2993      F3000   1.357       .  S
C2994      C2995   1.404       .  A
C2994      H2999   1.083       .  S
C2995      C2996   1.401       .  A
C2996      F2997   1.354       .  S
C3001      C3002   1.398       .  A
C3001      C3006   1.407       .  A
C3001      H3008   1.083       .  S
C3002      C3003   1.421       .  A
C3003      C3004   1.411       .  A
C3003      F3010   1.357       .  S
C3004      C3005   1.400       .  A
C3004      H3009   1.083       .  S
C3005      C3006   1.422       .  A
C3006      F3007   1.358       .  S
C3011      C3012   1.420       .  A
C3011      C3016   1.408       .  A
C3011      H3018   1.083       .  S
C3012      C3013   1.400       .  A
C3013      C3014   1.408       .  A
C3013      F3020   1.357       .  S
C3014      C3015   1.422       .  A
C3014      H3019   1.083       .  S
C3015      C3016   1.400       .  A
C3016      F3017   1.356       .  S
C3021      C3022   1.399       .  A
C3021      C3026   1.410   1_655  A
C3021      H3028   1.083       .  S
C3022      C3023   1.428       .  A
C3023      C3024   1.406   1_655  A
C3023      F3030   1.357       .  S
C3024      C3025   1.395       .  A
C3024      H3029   1.083       .  S
C3025      C3026   1.424       .  A
C3026      F3027   1.357       .  S
C3031      C3032   1.422       .  A
C3031      C3036   1.410   1_565  A
C3031      H3038   1.083       .  S
C3032      C3033   1.401       .  A
C3033      C3034   1.411   1_565  A
C3033      F3040   1.357       .  S
C3034      C3035   1.421       .  A
C3034      H3039   1.083       .  S
C3035      C3036   1.400       .  A
C3036      F3037   1.357       .  S
C3041      C3042   1.421       .  A
C3041      C3046   1.407       .  A
C3041      H3048   1.083       .  S
C3042      C3043   1.399       .  A
C3043      C3044   1.406       .  A
C3043      F3050   1.357       .  S
C3044      C3045   1.420       .  A
C3044      H3049   1.083       .  S
C3045      C3046   1.400       .  A
C3046      F3047   1.357       .  S
C3051      C3052   1.394       .  A
C3051      C3056   1.401       .  A
C3051      H3058   1.083       .  S
C3052      C3053   1.424       .  A
C3053      C3054   1.405       .  A
C3053      F3060   1.357       .  S
C3054      C3055   1.396       .  A
C3054      H3059   1.083       .  S
C3055      C3056   1.424       .  A
C3056      F3057   1.358       .  S
C3061      C3062   1.420       .  A
C3061      C3066   1.406   1_655  A
C3061      H3068   1.083       .  S
C3062      C3063   1.398       .  A
C3063      C3064   1.407   1_655  A
C3063      F3070   1.357       .  S
C3064      C3065   1.422       .  A
C3064      H3069   1.083       .  S
C3065      C3066   1.399       .  A
C3066      F3067   1.357       .  S
C3071      C3072   1.393       .  A
C3071      C3076   1.401       .  A
C3071      H3078   1.083       .  S
C3072      C3073   1.420       .  A
C3073      C3074   1.409       .  A
C3073      F3080   1.358       .  S
C3074      C3075   1.399       .  A
C3074      H3079   1.083       .  S
C3075      C3076   1.427       .  A
C3076      F3077   1.357       .  S
C3081      C3082   1.405       .  A
C3081      C3086   1.397   1_545  A
C3081      H3088   1.083       .  S
C3082      C3083   1.404   1_545  A
C3083      C3084   1.390       .  A
C3083      F3090   1.358       .  S
C3084      C3085   1.402       .  A
C3084      H3089   1.084       .  S
C3085      C3086   1.406       .  A
C3086      F3087   1.357       .  S
C3091      C3092   1.394       .  A
C3091      C3096   1.403       .  A
C3091      H3098   1.083       .  S
C3092      C3093   1.424       .  A
C3093      C3094   1.406       .  A
C3093      F3100   1.358       .  S
C3094      C3095   1.397       .  A
C3094      H3099   1.083       .  S
C3095      C3096   1.425       .  A
C3096      F3097   1.357       .  S
C3101      C3102   1.418       .  A
C3101      C3106   1.407       .  A
C3101      H3108   1.083       .  S
C3102      C3103   1.398       .  A
C3103      C3104   1.404       .  A
C3103      F3110   1.357       .  S
C3104      C3105   1.420       .  A
C3104      H3109   1.083       .  S
C3105      C3106   1.400       .  A
C3106      F3107   1.357       .  S
C3111      C3112   1.397       .  A
C3111      C3116   1.408   1_565  A
C3111      H3118   1.083       .  S
C3112      C3113   1.423       .  A
C3113      C3114   1.408   1_565  A
C3113      F3120   1.357       .  S
C3114      C3115   1.398       .  A
C3114      H3119   1.083       .  S
C3115      C3116   1.427       .  A
C3116      F3117   1.357       .  S
C3121      C3122   1.403       .  A
C3121      C3126   1.392   1_465  A
C3121      H3128   1.083       .  S
C3122      C3123   1.402   1_455  A
C3123      C3124   1.387       .  A
C3123      F3130   1.357       .  S
C3124      C3125   1.400   1_565  A
C3124      H3129   1.084       .  S
C3125      C3126   1.405       .  A
C3126      F3127   1.358       .  S
C3131      C3132   1.394       .  A
C3131      C3136   1.404       .  A
C3131      H3138   1.083       .  S
C3132      C3133   1.420       .  A
C3133      C3134   1.406       .  A
C3133      F3140   1.357       .  S
C3134      C3135   1.397       .  A
C3134      H3139   1.083       .  S
C3135      C3136   1.427       .  A
C3136      F3137   1.358       .  S
C3141      C3142   1.401       .  A
C3141      C3146   1.388       .  A
C3141      H3148   1.084       .  S
C3142      C3143   1.404       .  A
C3143      C3144   1.394   1_655  A
C3143      F3150   1.357       .  S
C3144      C3145   1.403       .  A
C3144      H3149   1.083       .  S
C3145      C3146   1.405   1_455  A
C3146      F3147   1.357       .  S
C3151      C3152   1.400       .  A
C3151      C3156   1.387       .  A
C3151      H3158   1.083       .  S
C3152      C3153   1.407       .  A
C3153      C3154   1.396       .  A
C3153      F3160   1.357       .  S
C3154      C3155   1.403       .  A
C3154      H3159   1.083       .  S
C3155      C3156   1.407       .  A
C3156      F3157   1.358       .  S
C3161      C3162   1.394       .  A
C3161      C3166   1.401       .  A
C3161      H3168   1.083       .  S
C3162      C3163   1.426       .  A
C3163      C3164   1.407       .  A
C3163      F3170   1.357       .  S
C3164      C3165   1.396       .  A
C3164      H3169   1.083       .  S
C3165      C3166   1.425       .  A
C3166      F3167   1.358       .  S
C3171      C3172   1.422       .  A
C3171      C3176   1.406       .  A
C3171      H3178   1.083       .  S
C3172      C3173   1.400       .  A
C3173      C3174   1.409       .  A
C3173      F3180   1.357       .  S
C3174      C3175   1.421       .  A
C3174      H3179   1.083       .  S
C3175      C3176   1.398       .  A
C3176      F3177   1.357       .  S
C3181      C3182   1.421       .  A
C3181      C3186   1.406   1_565  A
C3181      H3188   1.083       .  S
C3182      C3183   1.398       .  A
C3183      C3184   1.405   1_565  A
C3183      F3190   1.357       .  S
C3184      C3185   1.419       .  A
C3184      H3189   1.083       .  S
C3185      C3186   1.399       .  A
C3186      F3187   1.357       .  S
C3191      C3192   1.402       .  A
C3191      C3196   1.389       .  A
C3191      H3198   1.084       .  S
C3192      C3193   1.406       .  A
C3193      C3194   1.393   1_565  A
C3193      F3200   1.358       .  S
C3194      C3195   1.403   1_545  A
C3194      H3199   1.083       .  S
C3195      C3196   1.404       .  A
C3196      F3197   1.357       .  S
C3201      C3202   1.420       .  A
C3201      C3206   1.404       .  A
C3201      H3208   1.083       .  S
C3202      C3203   1.400       .  A
C3203      C3204   1.410       .  A
C3203      F3210   1.357       .  S
C3204      C3205   1.421       .  A
C3204      H3209   1.083       .  S
C3205      C3206   1.398       .  A
C3206      F3207   1.357       .  S
C3211      C3212   1.419       .  A
C3211      C3216   1.410       .  A
C3211      H3218   1.083       .  S
C3212      C3213   1.401       .  A
C3213      C3214   1.409       .  A
C3213      F3220   1.357       .  S
C3214      C3215   1.420       .  A
C3214      H3219   1.083       .  S
C3215      C3216   1.402       .  A
C3216      F3217   1.357       .  S
C3221      C3222   1.401       .  A
C3221      C3226   1.390       .  A
C3221      H3228   1.084       .  S
C3222      C3223   1.408       .  A
C3223      C3224   1.394       .  A
C3223      F3230   1.357       .  S
C3224      C3225   1.401       .  A
C3224      H3229   1.083       .  S
C3225      C3226   1.405       .  A
C3226      F3227   1.358       .  S
C3231      C3232   1.402       .  A
C3231      C3236   1.393       .  A
C3231      H3238   1.083       .  S
C3232      C3233   1.403       .  A
C3233      C3234   1.390       .  A
C3233      F3240   1.358       .  S
C3234      C3235   1.401       .  A
C3234      H3239   1.084       .  S
C3235      C3236   1.405       .  A
C3236      F3237   1.358       .  S
C3241      C3242   1.399       .  A
C3241      C3246   1.410       .  A
C3241      H3248   1.083       .  S
C3242      C3243   1.428       .  A
C3243      C3244   1.402       .  A
C3243      F3250   1.357       .  S
C3244      C3245   1.393       .  A
C3244      H3249   1.083       .  S
C3245      C3246   1.424       .  A
C3246      F3247   1.357       .  S
C3251      C3252   1.421       .  A
C3251      C3256   1.402   1_655  A
C3251      H3258   1.083       .  S
C3252      C3253   1.400       .  A
C3253      C3254   1.408   1_655  A
C3253      F3260   1.357       .  S
C3254      C3255   1.421       .  A
C3254      H3259   1.083       .  S
C3255      C3256   1.395       .  A
C3256      F3257   1.357       .  S
C3261      C3262   1.406       .  A
C3261      C3266   1.401       .  A
C3261      H3268   1.083       .  S
C3262      C3263   1.404       .  A
C3263      C3264   1.390       .  A
C3263      F3270   1.357       .  S
C3264      C3265   1.402       .  A
C3264      H3269   1.084       .  S
C3265      C3266   1.407       .  A
C3266      F3267   1.357   1_655  S
C3271      C3272   1.419       .  A
C3271      C3276   1.407       .  A
C3271      H3278   1.083       .  S
C3272      C3273   1.400       .  A
C3273      C3274   1.408       .  A
C3273      F3280   1.357       .  S
C3274      C3275   1.421       .  A
C3274      H3279   1.083       .  S
C3275      C3276   1.400       .  A
C3276      F3277   1.357       .  S
C3281      C3282   1.420       .  A
C3281      C3286   1.405   1_565  A
C3281      H3288   1.083       .  S
C3282      C3283   1.399       .  A
C3283      C3284   1.407   1_565  A
C3283      F3290   1.357       .  S
C3284      C3285   1.421       .  A
C3284      H3289   1.083       .  S
C3285      C3286   1.399       .  A
C3286      F3287   1.357       .  S
C3291      C3292   1.398       .  A
C3291      C3296   1.407   1_455  A
C3291      H3298   1.083       .  S
C3292      C3293   1.417       .  A
C3293      C3294   1.406   1_455  A
C3293      F3300   1.357       .  S
C3294      C3295   1.399       .  A
C3294      H3299   1.083       .  S
C3295      C3296   1.422       .  A
C3296      F3297   1.358       .  S
C3301      C3302   1.399   1_565  A
C3301      C3306   1.389       .  A
C3301      H3308   1.083       .  S
C3302      C3303   1.405       .  A
C3303      C3304   1.392   1_545  A
C3303      F3310   1.358       .  S
C3304      C3305   1.403       .  A
C3304      H3309   1.083       .  S
C3305      C3306   1.404       .  A
C3306      F3307   1.357       .  S
C3311      C3312   1.402       .  A
C3311      C3316   1.389       .  A
C3311      H3318   1.084       .  S
C3312      C3313   1.406   1_655  A
C3313      C3314   1.395   1_455  A
C3313      F3320   1.357       .  S
C3314      C3315   1.403       .  A
C3314      H3319   1.083       .  S
C3315      C3316   1.404       .  A
C3316      F3317   1.358       .  S
C3321      C3322   1.400       .  A
C3321      C3326   1.388       .  A
C3321      H3328   1.084       .  S
C3322      C3323   1.408       .  A
C3323      C3324   1.395       .  A
C3323      F3330   1.357       .  S
C3324      C3325   1.402       .  A
C3324      H3329   1.083       .  S
C3325      C3326   1.407       .  A
C3326      F3327   1.357       .  S
C3331      C3332   1.421       .  A
C3331      C3336   1.408       .  A
C3331      H3338   1.083       .  S
C3332      C3333   1.399       .  A
C3333      C3334   1.406       .  A
C3333      F3340   1.357       .  S
C3334      C3335   1.420       .  A
C3334      H3339   1.083       .  S
C3335      C3336   1.399       .  A
C3336      F3337   1.357       .  S
C3341      C3342   1.404       .  A
C3341      C3346   1.394       .  A
C3341      H3348   1.083       .  S
C3342      C3343   1.403       .  A
C3343      C3344   1.390       .  A
C3343      F3350   1.357       .  S
C3344      C3345   1.402       .  A
C3344      H3349   1.084       .  S
C3345      C3346   1.404       .  A
C3346      F3347   1.357       .  S
C3351      C3352   1.397       .  A
C3351      C3356   1.408       .  A
C3351      H3358   1.083       .  S
C3352      C3353   1.426       .  A
C3353      C3354   1.406       .  A
C3353      F3360   1.357       .  S
C3354      C3355   1.396       .  A
C3354      H3359   1.083       .  S
C3355      C3356   1.427       .  A
C3356      F3357   1.357       .  S
C3361      C3362   1.420       .  A
C3361      C3366   1.406       .  A
C3361      H3368   1.083       .  S
C3362      C3363   1.398       .  A
C3363      C3364   1.405       .  A
C3363      F3370   1.357       .  S
C3364      C3365   1.420       .  A
C3364      H3369   1.083       .  S
C3365      C3366   1.399       .  A
C3366      F3367   1.357       .  S
C3371      C3372   1.399       .  A
C3371      C3376   1.407       .  A
C3371      H3378   1.083       .  S
C3372      C3373   1.424       .  A
C3373      C3374   1.412       .  A
C3373      F3380   1.358       .  S
C3374      C3375   1.400       .  A
C3374      H3379   1.083       .  S
C3375      C3376   1.420       .  A
C3376      F3377   1.357       .  S
C3381      C3382   1.398       .  A
C3381      C3386   1.411   1_655  A
C3381      H3388   1.083       .  S
C3382      C3383   1.422       .  A
C3383      C3384   1.410   1_655  A
C3383      F3390   1.357       .  S
C3384      C3385   1.400       .  A
C3384      H3389   1.083       .  S
C3385      C3386   1.427       .  A
C3386      F3387   1.357       .  S
C3391      C3392   1.394       .  A
C3391      C3396   1.404   1_556  A
C3391      H3398   1.083       .  S
C3392      C3393   1.421   1_556  A
C3393      C3394   1.407       .  A
C3393      F3400   1.358   1_554  S
C3394      C3395   1.398       .  A
C3394      H3399   1.083       .  S
C3395      C3396   1.427       .  A
C3396      F3397   1.357       .  S
C3401      C3402   1.398       .  A
C3401      C3406   1.407       .  A
C3401      H3408   1.083       .  S
C3402      C3403   1.427       .  A
C3403      C3404   1.406       .  A
C3403      F3410   1.357       .  S
C3404      C3405   1.395       .  A
C3404      H3409   1.083       .  S
C3405      C3406   1.422       .  A
C3406      F3407   1.358       .  S
C3411      C3412   1.397       .  A
C3411      C3416   1.407       .  A
C3411      H3418   1.083       .  S
C3412      C3413   1.425       .  A
C3413      C3414   1.406       .  A
C3413      F3420   1.357       .  S
C3414      C3415   1.396       .  A
C3414      H3419   1.083       .  S
C3415      C3416   1.425       .  A
C3416      F3417   1.358       .  S
C3421      C3422   1.392       .  A
C3421      C3426   1.401       .  A
C3421      H3428   1.083       .  S
C3422      C3423   1.421       .  A
C3423      C3424   1.410       .  A
C3423      F3430   1.358       .  S
C3424      C3425   1.399       .  A
C3424      H3429   1.083       .  S
C3425      C3426   1.426       .  A
C3426      F3427   1.357       .  S
C3431      C3432   1.404       .  A
C3431      C3436   1.396       .  A
C3431      H3438   1.083       .  S
C3432      C3433   1.402       .  A
C3433      C3434   1.391   1_554  A
C3433      F3440   1.358       .  S
C3434      C3435   1.403       .  A
C3434      H3439   1.084       .  S
C3435      C3436   1.406   1_556  A
C3436      F3437   1.357       .  S
C3441      C3442   1.421       .  A
C3441      C3446   1.405   1_455  A
C3441      H3448   1.083       .  S
C3442      C3443   1.402       .  A
C3443      C3444   1.411   1_455  A
C3443      F3450   1.357       .  S
C3444      C3445   1.419       .  A
C3444      H3449   1.083       .  S
C3445      C3446   1.398       .  A
C3446      F3447   1.357       .  S
C3451      C3452   1.395       .  A
C3451      C3456   1.404       .  A
C3451      H3458   1.083       .  S
C3452      C3453   1.420       .  A
C3453      C3454   1.411       .  A
C3453      F3460   1.358       .  S
C3454      C3455   1.401       .  A
C3454      H3459   1.083       .  S
C3455      C3456   1.424       .  A
C3456      F3457   1.358       .  S
C3461      C3462   1.395       .  A
C3461      C3466   1.403       .  A
C3461      H3468   1.083       .  S
C3462      C3463   1.423       .  A
C3463      C3464   1.402       .  A
C3463      F3470   1.358       .  S
C3464      C3465   1.395       .  A
C3464      H3469   1.083       .  S
C3465      C3466   1.424       .  A
C3466      F3467   1.358       .  S
C3471      C3472   1.395       .  A
C3471      C3476   1.407       .  A
C3471      H3478   1.083       .  S
C3472      C3473   1.421       .  A
C3473      C3474   1.410       .  A
C3473      F3480   1.357       .  S
C3474      C3475   1.399       .  A
C3474      H3479   1.083       .  S
C3475      C3476   1.430       .  A
C3476      F3477   1.358       .  S
C3481      C3482   1.402       .  A
C3481      C3486   1.391       .  A
C3481      H3488   1.084       .  S
C3482      C3483   1.407       .  A
C3483      C3484   1.392   1_655  A
C3483      F3490   1.357       .  S
C3484      C3485   1.401       .  A
C3484      H3489   1.083       .  S
C3485      C3486   1.404   1_455  A
C3486      F3487   1.358       .  S
C3491      C3492   1.394       .  A
C3491      C3496   1.402   1_556  A
C3491      H3498   1.083       .  S
C3492      C3493   1.424   1_556  A
C3493      C3494   1.403       .  A
C3493      F3500   1.358   1_554  S
C3494      C3495   1.396       .  A
C3494      H3499   1.083       .  S
C3495      C3496   1.424       .  A
C3496      F3497   1.357       .  S
C3501      C3502   1.401   1_655  A
C3501      C3506   1.388       .  A
C3501      H3508   1.083       .  S
C3502      C3503   1.405       .  A
C3503      C3504   1.395   1_456  A
C3503      F3510   1.358       .  S
C3504      C3505   1.404       .  A
C3504      H3509   1.083       .  S
C3505      C3506   1.404   1_554  A
C3506      F3507   1.358       .  S
C3511      C3512   1.418       .  A
C3511      C3516   1.410       .  A
C3511      H3518   1.083       .  S
C3512      C3513   1.396       .  A
C3513      C3514   1.402       .  A
C3513      F3520   1.357       .  S
C3514      C3515   1.421       .  A
C3514      H3519   1.083       .  S
C3515      C3516   1.401       .  A
C3516      F3517   1.357       .  S
C3521      C3522   1.403       .  A
C3521      C3526   1.391       .  A
C3521      H3528   1.084       .  S
C3522      C3523   1.407       .  A
C3523      C3524   1.396       .  A
C3523      F3530   1.357       .  S
C3524      C3525   1.403       .  A
C3524      H3529   1.083       .  S
C3525      C3526   1.402       .  A
C3526      F3527   1.355       .  S
C3531      C3532   1.393       .  A
C3531      C3536   1.402       .  A
C3531      H3538   1.083       .  S
C3532      C3533   1.421       .  A
C3533      C3534   1.408       .  A
C3533      F3540   1.357       .  S
C3534      C3535   1.398       .  A
C3534      H3539   1.083       .  S
C3535      C3536   1.428       .  A
C3536      F3537   1.358       .  S
C3541      C3542   1.421   1_554  A
C3541      C3546   1.407       .  A
C3541      H3548   1.083       .  S
C3542      C3543   1.401       .  A
C3543      C3544   1.408   1_556  A
C3543      F3550   1.357       .  S
C3544      C3545   1.419       .  A
C3544      H3549   1.083       .  S
C3545      C3546   1.399       .  A
C3546      F3547   1.357       .  S
C3551      C3552   1.404       .  A
C3551      C3556   1.395   1_556  A
C3551      H3558   1.083       .  S
C3552      C3553   1.404       .  A
C3553      C3554   1.387       .  A
C3553      F3560   1.358       .  S
C3554      C3555   1.402   1_556  A
C3554      H3559   1.083       .  S
C3555      C3556   1.405       .  A
C3556      F3557   1.357       .  S
C3561      C3562   1.396       .  A
C3561      C3566   1.406       .  A
C3561      H3568   1.083       .  S
C3562      C3563   1.424       .  A
C3563      C3564   1.408       .  A
C3563      F3570   1.357       .  S
C3564      C3565   1.398       .  A
C3564      H3569   1.083       .  S
C3565      C3566   1.425       .  A
C3566      F3567   1.357       .  S
C3571      C3572   1.421       .  A
C3571      C3576   1.404   1_455  A
C3571      H3578   1.083       .  S
C3572      C3573   1.400       .  A
C3573      C3574   1.408   1_455  A
C3573      F3580   1.357       .  S
C3574      C3575   1.419       .  A
C3574      H3579   1.083       .  S
C3575      C3576   1.398       .  A
C3576      F3577   1.357       .  S
C3581      C3582   1.397       .  A
C3581      C3586   1.407   1_556  A
C3581      H3588   1.083       .  S
C3582      C3583   1.427   1_556  A
C3583      C3584   1.406       .  A
C3583      F3590   1.357   1_554  S
C3584      C3585   1.395       .  A
C3584      H3589   1.083       .  S
C3585      C3586   1.424       .  A
C3586      F3587   1.357       .  S
C3591      C3592   1.403       .  A
C3591      C3596   1.396   1_554  A
C3591      H3598   1.083       .  S
C3592      C3593   1.406   1_554  A
C3593      C3594   1.390       .  A
C3593      F3600   1.358       .  S
C3594      C3595   1.402       .  A
C3594      H3599   1.083       .  S
C3595      C3596   1.407       .  A
C3596      F3597   1.357       .  S
C3601      C3602   1.401       .  A
C3601      C3606   1.393   1_655  A
C3601      H3608   1.083       .  S
C3602      C3603   1.404       .  A
C3603      C3604   1.390       .  A
C3603      F3610   1.356       .  S
C3604      C3605   1.399   1_655  A
C3604      H3609   1.084       .  S
C3605      C3606   1.407       .  A
C3606      F3607   1.358       .  S
C3611      C3612   1.402       .  A
C3611      C3616   1.392       .  A
C3611      H3618   1.083       .  S
C3612      C3613   1.404       .  A
C3613      C3614   1.389       .  A
C3613      F3620   1.358       .  S
C3614      C3615   1.402       .  A
C3614      H3619   1.084       .  S
C3615      C3616   1.405       .  A
C3616      F3617   1.357       .  S
C3621      C3622   1.397       .  A
C3621      C3626   1.407       .  A
C3621      H3628   1.083       .  S
C3622      C3623   1.420       .  A
C3623      C3624   1.410       .  A
C3623      F3630   1.358       .  S
C3624      C3625   1.401       .  A
C3624      H3629   1.083       .  S
C3625      C3626   1.425       .  A
C3626      F3627   1.357       .  S
C3631      C3632   1.422       .  A
C3631      C3636   1.407       .  A
C3631      H3638   1.083       .  S
C3632      C3633   1.401       .  A
C3633      C3634   1.411       .  A
C3633      F3640   1.357       .  S
C3634      C3635   1.420       .  A
C3634      H3639   1.083       .  S
C3635      C3636   1.399       .  A
C3636      F3637   1.357       .  S
C3641      C3642   1.394       .  A
C3641      C3646   1.403       .  A
C3641      H3648   1.083       .  S
C3642      C3643   1.421       .  A
C3643      C3644   1.406       .  A
C3643      F3650   1.358       .  S
C3644      C3645   1.398       .  A
C3644      H3649   1.083       .  S
C3645      C3646   1.425       .  A
C3646      F3647   1.357       .  S
C3651      C3652   1.400       .  A
C3651      C3656   1.388       .  A
C3651      H3658   1.084       .  S
C3652      C3653   1.407       .  A
C3653      C3654   1.396       .  A
C3653      F3660   1.358       .  S
C3654      C3655   1.403       .  A
C3654      H3659   1.083       .  S
C3655      C3656   1.404       .  A
C3656      F3657   1.358       .  S
C3661      C3662   1.421       .  A
C3661      C3666   1.407       .  A
C3661      H3668   1.083       .  S
C3662      C3663   1.402       .  A
C3663      C3664   1.411       .  A
C3663      F3670   1.357       .  S
C3664      C3665   1.420       .  A
C3664      H3669   1.083       .  S
C3665      C3666   1.399       .  A
C3666      F3667   1.357       .  S
C3671      C3672   1.402       .  A
C3671      C3676   1.385       .  A
C3671      H3678   1.084       .  S
C3672      C3673   1.405       .  A
C3673      C3674   1.394       .  A
C3673      F3680   1.357       .  S
C3674      C3675   1.404       .  A
C3674      H3679   1.083       .  S
C3675      C3676   1.403       .  A
C3676      F3677   1.356       .  S
C3681      C3682   1.399       .  A
C3681      C3686   1.408   1_655  A
C3681      H3688   1.083       .  S
C3682      C3683   1.421       .  A
C3683      C3684   1.406   1_655  A
C3683      F3690   1.358       .  S
C3684      C3685   1.398       .  A
C3684      H3689   1.083       .  S
C3685      C3686   1.417       .  A
C3686      F3687   1.357       .  S
C3691      C3692   1.400       .  A
C3691      C3696   1.387       .  A
C3691      H3698   1.084       .  S
C3692      C3693   1.408       .  A
C3693      C3694   1.398   1_655  A
C3693      F3700   1.357       .  S
C3694      C3695   1.403   1_455  A
C3694      H3699   1.083       .  S
C3695      C3696   1.406       .  A
C3696      F3697   1.358       .  S
C3701      C3702   1.402       .  A
C3701      C3706   1.389       .  A
C3701      H3708   1.084       .  S
C3702      C3703   1.405       .  A
C3703      C3704   1.395       .  A
C3703      F3710   1.357       .  S
C3704      C3705   1.403       .  A
C3704      H3709   1.083       .  S
C3705      C3706   1.404       .  A
C3706      F3707   1.356       .  S
C3711      C3712   1.399       .  A
C3711      C3716   1.410       .  A
C3711      H3718   1.083       .  S
C3712      C3713   1.426       .  A
C3713      C3714   1.403       .  A
C3713      F3720   1.357       .  S
C3714      C3715   1.394       .  A
C3714      H3719   1.083       .  S
C3715      C3716   1.423       .  A
C3716      F3717   1.357       .  S
C3721      C3722   1.399       .  A
C3721      C3726   1.409       .  A
C3721      H3728   1.083       .  S
C3722      C3723   1.426       .  A
C3723      C3724   1.406       .  A
C3723      F3730   1.357       .  S
C3724      C3725   1.396       .  A
C3724      H3729   1.083       .  S
C3725      C3726   1.422       .  A
C3726      F3727   1.357       .  S
C3731      C3732   1.397       .  A
C3731      C3736   1.408       .  A
C3731      H3738   1.083       .  S
C3732      C3733   1.424       .  A
C3733      C3734   1.408       .  A
C3733      F3740   1.358       .  S
C3734      C3735   1.399       .  A
C3734      H3739   1.083       .  S
C3735      C3736   1.426       .  A
C3736      F3737   1.357       .  S
C3741      C3742   1.397       .  A
C3741      C3746   1.407   1_565  A
C3741      H3748   1.083       .  S
C3742      C3743   1.425       .  A
C3743      C3744   1.408   1_565  A
C3743      F3750   1.357       .  S
C3744      C3745   1.397       .  A
C3744      H3749   1.083       .  S
C3745      C3746   1.426       .  A
C3746      F3747   1.357       .  S
C3751      C3752   1.397       .  A
C3751      C3756   1.406   1_556  A
C3751      H3758   1.083       .  S
C3752      C3753   1.426   1_556  A
C3753      C3754   1.404       .  A
C3753      F3760   1.357   1_554  S
C3754      C3755   1.395       .  A
C3754      H3759   1.083       .  S
C3755      C3756   1.424       .  A
C3756      F3757   1.358       .  S
C3761      C3762   1.399       .  A
C3761      C3766   1.410       .  A
C3761      H3768   1.083       .  S
C3762      C3763   1.427       .  A
C3763      C3764   1.407       .  A
C3763      F3770   1.357       .  S
C3764      C3765   1.396       .  A
C3764      H3769   1.083       .  S
C3765      C3766   1.424       .  A
C3766      F3767   1.357       .  S
C3771      C3772   1.421       .  A
C3771      C3776   1.404       .  A
C3771      H3778   1.083       .  S
C3772      C3773   1.400       .  A
C3773      C3774   1.411       .  A
C3773      F3780   1.357       .  S
C3774      C3775   1.422       .  A
C3774      H3779   1.083       .  S
C3775      C3776   1.397       .  A
C3776      F3777   1.357       .  S
C3781      C3782   1.420       .  A
C3781      C3786   1.410       .  A
C3781      H3788   1.083       .  S
C3782      C3783   1.399       .  A
C3783      C3784   1.404       .  A
C3783      F3790   1.357       .  S
C3784      C3785   1.420       .  A
C3784      H3789   1.083       .  S
C3785      C3786   1.401       .  A
C3786      F3787   1.357       .  S
C3791      C3792   1.402       .  A
C3791      C3796   1.389       .  A
C3791      H3798   1.084       .  S
C3792      C3793   1.407       .  A
C3793      C3794   1.398   1_556  A
C3793      F3800   1.357       .  S
C3794      C3795   1.404       .  A
C3794      H3799   1.083       .  S
C3795      C3796   1.407   1_554  A
C3796      F3797   1.358       .  S
C3801      C3802   1.398       .  A
C3801      C3806   1.409   1_565  A
C3801      H3808   1.083       .  S
C3802      C3803   1.425       .  A
C3803      C3804   1.411   1_565  A
C3803      F3810   1.357       .  S
C3804      C3805   1.399       .  A
C3804      H3809   1.083       .  S
C3805      C3806   1.426       .  A
C3806      F3807   1.357       .  S
C3811      C3812   1.420       .  A
C3811      C3816   1.400       .  A
C3811      H3818   1.083       .  S
C3812      C3813   1.397       .  A
C3813      C3814   1.402       .  A
C3813      F3820   1.357       .  S
C3814      C3815   1.419       .  A
C3814      H3819   1.083       .  S
C3815      C3816   1.396       .  A
C3816      F3817   1.357       .  S
C3821      C3822   1.393       .  A
C3821      C3826   1.402       .  A
C3821      H3828   1.083       .  S
C3822      C3823   1.426       .  A
C3823      C3824   1.408       .  A
C3823      F3830   1.358       .  S
C3824      C3825   1.397       .  A
C3824      H3829   1.083       .  S
C3825      C3826   1.424       .  A
C3826      F3827   1.357       .  S
C3831      C3832   1.400       .  A
C3831      C3836   1.411       .  A
C3831      H3838   1.083       .  S
C3832      C3833   1.427       .  A
C3833      C3834   1.404       .  A
C3833      F3840   1.357       .  S
C3834      C3835   1.394       .  A
C3834      H3839   1.083       .  S
C3835      C3836   1.422       .  A
C3836      F3837   1.358       .  S
C3841      C3842   1.400   1_565  A
C3841      C3846   1.389       .  A
C3841      H3848   1.084       .  S
C3842      C3843   1.406       .  A
C3843      C3844   1.393   1_545  A
C3843      F3850   1.358       .  S
C3844      C3845   1.402       .  A
C3844      H3849   1.083       .  S
C3845      C3846   1.403       .  A
C3846      F3847   1.358       .  S
C3851      C3852   1.394       .  A
C3851      C3856   1.402   1_556  A
C3851      H3858   1.083       .  S
C3852      C3853   1.423   1_556  A
C3853      C3854   1.407       .  A
C3853      F3860   1.357   1_554  S
C3854      C3855   1.397       .  A
C3854      H3859   1.083       .  S
C3855      C3856   1.426       .  A
C3856      F3857   1.358       .  S
C3861      C3862   1.404       .  A
C3861      C3866   1.396   1_546  A
C3861      H3868   1.083       .  S
C3862      C3863   1.404   1_545  A
C3863      C3864   1.389       .  A
C3863      F3870   1.358       .  S
C3864      C3865   1.401   1_556  A
C3864      H3869   1.083       .  S
C3865      C3866   1.406       .  A
C3866      F3867   1.358       .  S
C3871      C3872   1.421       .  A
C3871      C3876   1.407       .  A
C3871      H3878   1.083       .  S
C3872      C3873   1.401       .  A
C3873      C3874   1.410       .  A
C3873      F3880   1.357       .  S
C3874      C3875   1.420       .  A
C3874      H3879   1.083       .  S
C3875      C3876   1.398       .  A
C3876      F3877   1.357       .  S
C3881      C3882   1.401       .  A
C3881      C3886   1.389       .  A
C3881      H3888   1.084       .  S
C3882      C3883   1.407       .  A
C3883      C3884   1.398       .  A
C3883      F3890   1.357       .  S
C3884      C3885   1.405       .  A
C3884      H3889   1.083       .  S
C3885      C3886   1.404       .  A
C3886      F3887   1.357       .  S
C3891      C3892   1.420       .  A
C3891      C3896   1.406       .  A
C3891      H3898   1.083       .  S
C3892      C3893   1.398       .  A
C3893      C3894   1.404       .  A
C3893      F3900   1.357       .  S
C3894      C3895   1.421       .  A
C3894      H3899   1.083       .  S
C3895      C3896   1.399       .  A
C3896      F3897   1.357       .  S
C3901      C3902   1.420   1_554  A
C3901      C3906   1.408       .  A
C3901      H3908   1.083   1_554  S
C3902      C3903   1.398       .  A
C3903      C3904   1.405   1_556  A
C3903      F3910   1.357       .  S
C3904      C3905   1.421       .  A
C3904      H3909   1.083       .  S
C3905      C3906   1.400       .  A
C3906      F3907   1.357       .  S
C3911      C3912   1.402       .  A
C3911      C3916   1.390       .  A
C3911      H3918   1.084       .  S
C3912      C3913   1.405   1_556  A
C3913      C3914   1.396       .  A
C3913      F3920   1.357       .  S
C3914      C3915   1.404       .  A
C3914      H3919   1.083       .  S
C3915      C3916   1.406   1_554  A
C3916      F3917   1.358       .  S
C3921      C3922   1.421       .  A
C3921      C3926   1.410       .  A
C3921      H3928   1.083       .  S
C3922      C3923   1.397       .  A
C3923      C3924   1.404       .  A
C3923      F3930   1.357       .  S
C3924      C3925   1.421       .  A
C3924      H3929   1.083       .  S
C3925      C3926   1.401       .  A
C3926      F3927   1.357       .  S
C3931      C3932   1.399       .  A
C3931      C3936   1.409   1_565  A
C3931      H3938   1.083       .  S
C3932      C3933   1.428       .  A
C3933      C3934   1.404   1_565  A
C3933      F3940   1.358       .  S
C3934      C3935   1.395       .  A
C3934      H3939   1.083       .  S
C3935      C3936   1.421       .  A
C3936      F3937   1.357       .  S
C3941      C3942   1.396       .  A
C3941      C3946   1.406   1_556  A
C3941      H3948   1.083       .  S
C3942      C3943   1.428   1_556  A
C3943      C3944   1.404       .  A
C3943      F3950   1.358   1_554  S
C3944      C3945   1.395       .  A
C3944      H3949   1.083       .  S
C3945      C3946   1.424       .  A
C3946      F3947   1.357       .  S
C3951      C3952   1.402       .  A
C3951      C3956   1.391   1_554  A
C3951      H3958   1.084       .  S
C3952      C3953   1.406       .  A
C3953      C3954   1.394       .  A
C3953      F3960   1.358       .  S
C3954      C3955   1.402   1_554  A
C3954      H3959   1.083   1_554  S
C3955      C3956   1.402       .  A
C3956      F3957   1.357       .  S
C3961      C3962   1.401       .  A
C3961      C3966   1.391       .  A
C3961      H3968   1.083       .  S
C3962      C3963   1.406       .  A
C3963      C3964   1.393   1_565  A
C3963      F3970   1.358       .  S
C3964      C3965   1.402       .  A
C3964      H3969   1.083       .  S
C3965      C3966   1.405   1_545  A
C3966      F3967   1.358       .  S
C3971      C3972   1.404       .  A
C3971      C3976   1.396       .  A
C3971      H3978   1.083       .  S
C3972      C3973   1.406       .  A
C3973      C3974   1.387       .  A
C3973      F3980   1.358       .  S
C3974      C3975   1.401       .  A
C3974      H3979   1.084       .  S
C3975      C3976   1.406       .  A
C3976      F3977   1.357       .  S
C3981      C3982   1.399       .  A
C3981      C3986   1.413       .  A
C3981      H3988   1.083       .  S
C3982      C3983   1.428       .  A
C3983      C3984   1.410       .  A
C3983      F3990   1.357       .  S
C3984      C3985   1.398       .  A
C3984      H3989   1.083       .  S
C3985      C3986   1.426       .  A
C3986      F3987   1.357       .  S
C3991      C3992   1.398       .  A
C3991      C3996   1.409       .  A
C3991      H3998   1.083       .  S
C3992      C3993   1.426       .  A
C3993      C3994   1.404       .  A
C3993      F4000   1.357       .  S
C3994      C3995   1.395       .  A
C3994      H3999   1.083       .  S
C3995      C3996   1.426       .  A
C3996      F3997   1.357       .  S
C4001      C4002   1.397       .  A
C4001      C4006   1.407       .  A
C4001      H4008   1.083       .  S
C4002      C4003   1.426       .  A
C4003      C4004   1.406       .  A
C4003      F4010   1.358       .  S
C4004      C4005   1.396       .  A
C4004      H4009   1.083       .  S
C4005      C4006   1.424       .  A
C4006      F4007   1.357       .  S
C4011      C4012   1.395       .  A
C4011      C4016   1.405       .  A
C4011      H4018   1.083       .  S
C4012      C4013   1.425       .  A
C4013      C4014   1.407       .  A
C4013      F4020   1.358       .  S
C4014      C4015   1.398       .  A
C4014      H4019   1.083       .  S
C4015      C4016   1.426       .  A
C4016      F4017   1.357       .  S
C4021      C4022   1.404       .  A
C4021      C4026   1.396       .  A
C4021      H4028   1.083       .  S
C4022      C4023   1.405       .  A
C4023      C4024   1.389       .  A
C4023      F4030   1.358       .  S
C4024      C4025   1.401       .  A
C4024      H4029   1.084       .  S
C4025      C4026   1.407       .  A
C4026      F4027   1.358       .  S
C4031      C4032   1.404       .  A
C4031      C4036   1.395       .  A
C4031      H4038   1.083       .  S
C4032      C4033   1.403       .  A
C4033      C4034   1.388       .  A
C4033      F4040   1.357       .  S
C4034      C4035   1.401       .  A
C4034      H4039   1.084       .  S
C4035      C4036   1.406       .  A
C4036      F4037   1.357       .  S
C4041      C4042   1.421   1_545  A
C4041      C4046   1.405       .  A
C4041      H4048   1.083   1_545  S
C4042      C4043   1.399       .  A
C4043      C4044   1.406   1_565  A
C4043      F4050   1.357       .  S
C4044      C4045   1.419       .  A
C4044      H4049   1.083       .  S
C4045      C4046   1.398       .  A
C4046      F4047   1.357       .  S
C4051      C4052   1.401       .  A
C4051      C4056   1.394   1_565  A
C4051      H4058   1.083       .  S
C4052      C4053   1.404       .  A
C4053      C4054   1.387       .  A
C4053      F4060   1.358       .  S
C4054      C4055   1.400   1_565  A
C4054      H4059   1.084       .  S
C4055      C4056   1.408       .  A
C4056      F4057   1.358       .  S
C4061      C4062   1.401       .  A
C4061      C4066   1.392       .  A
C4061      H4068   1.083       .  S
C4062      C4063   1.408       .  A
C4063      C4064   1.393       .  A
C4063      F4070   1.357       .  S
C4064      C4065   1.401       .  A
C4064      H4069   1.083       .  S
C4065      C4066   1.406       .  A
C4066      F4067   1.358       .  S
C4071      C4072   1.402       .  A
C4071      C4076   1.411       .  A
C4071      H4078   1.083       .  S
C4072      C4073   1.422       .  A
C4073      C4074   1.402       .  A
C4073      F4080   1.358       .  S
C4074      C4075   1.395       .  A
C4074      H4079   1.083       .  S
C4075      C4076   1.417       .  A
C4076      F4077   1.357       .  S
