geometry optimzed in LAMMPS
_audit_creation_date              2020-11-30 
_audit_creation_method            'lammps2cif' 
_symmetry_space_group_name_H-M    'P1' 
_symmetry_Int_Tables_number       1 
_symmetry_cell_setting            triclinic 
loop_ 
_symmetry_equiv_pos_as_xyz 
  x,y,z 
_cell_length_a                    28.74000947 
_cell_length_b                    29.013240298121428 
_cell_length_c                    40.30236915951643 
_cell_angle_alpha                 90.77862781361561 
_cell_angle_beta                  90.52361604248556 
_cell_angle_gamma                 120.12611748700992 
loop_ 
_atom_site_label 
_atom_site_type_symbol 
_atom_site_fract_x 
_atom_site_fract_y 
_atom_site_fract_z 
_atom_site_charge 
O1          O  0.45903460  0.37420044  0.32158258    -0.75800
O2          O  0.39982541  0.32810334  0.27998913    -0.54700
C3          C  0.41456170  0.33468688  0.31056810     0.77900
O4          O  0.49751742  0.58555369  0.33677598    -0.60400
O5          O  0.54109879  0.63339864  0.29379085    -0.53400
C6          C  0.53750611  0.62800241  0.32491763     0.69900
O7          O  0.35183664  0.41422633  0.31470984    -0.75000
O8          O  0.33549321  0.35906366  0.27019140    -0.55500
C9          C  0.32288271  0.36933715  0.29849119     0.75900
O10         O  0.61205040  0.52305345  0.32873075    -0.60100
O11         O  0.62988925  0.60154848  0.30631189    -0.53200
C12         C  0.63740722  0.57424894  0.32827044     0.72500
Zr13       Zr  0.53738839  0.44972584  0.29800177     2.54700
O14         O  0.55621575  0.42090305  0.35041951    -0.80700
O15         O  0.58615324  0.40471264  0.28156290    -0.94100
Zr16       Zr  0.43265389  0.50373962  0.30331740     2.64700
O17         O  0.40191250  0.49074443  0.36039599    -0.99000
O18         O  0.37621296  0.54361052  0.29661152    -0.81100
O19         O  0.45419405  0.43984430  0.29137210    -0.84500
O20         O  0.52352249  0.52238293  0.30767370    -2.19200
O21         O  0.63514870  0.56359836  0.19026137    -0.67800
O22         O  0.64771708  0.62024366  0.23335479    -0.52400
C23         C  0.66179887  0.60988925  0.20567827     0.70900
O24         O  0.38379816  0.45392854  0.17072585    -0.60800
O25         O  0.35388974  0.37696538  0.19860192    -0.52700
C26         C  0.35309156  0.40338914  0.17368960     0.72700
O27         O  0.51772897  0.61792354  0.18821543    -0.72200
O28         O  0.58564777  0.65350881  0.22678893    -0.50800
C29         C  0.56535617  0.65388809  0.19838572     0.74100
O30         O  0.47894406  0.39976672  0.16521101    -0.67500
O31         O  0.43285943  0.34321605  0.20511397    -0.54700
C32         C  0.43956319  0.35449849  0.17460020     0.72500
Zr33       Zr  0.55164368  0.47321872  0.20043269     2.77500
O34         O  0.57965079  0.47396747  0.14347700    -0.98200
O35         O  0.60534131  0.43048925  0.20766273    -0.79000
Zr36       Zr  0.44791571  0.52815652  0.20603267     2.70100
O37         O  0.42864499  0.55224214  0.15206188    -0.80300
O38         O  0.38517422  0.55779786  0.22121970    -0.99400
Zr39       Zr  0.41859957  0.39883785  0.24239590     2.21500
Zr40       Zr  0.56564107  0.57934198  0.26174580     2.11100
O41         O  0.53749849  0.54561441  0.20649265    -2.48100
O42         O  0.46620306  0.46027488  0.20388171    -0.80100
O43         O  0.58577450  0.50942615  0.25479894    -0.72300
O44         O  0.39750333  0.46833332  0.24890086    -2.33200
O45         O  0.50744546  0.41141322  0.24415943    -2.29500
O46         O  0.47737397  0.55629406  0.25908405    -0.74000
H47         H  0.53731614  0.53616905  0.32959270     0.78000
H48         H  0.35944498  0.45553385  0.24666648     0.79000
H49         H  0.55701595  0.56733376  0.18819628     0.81300
H50         H  0.50869292  0.37891264  0.24165874     0.78900
H51         H  0.33930428  0.51275973  0.29381904     0.41900
H52         H  0.40555184  0.59685629  0.21824425     0.40900
H53         H  0.44935041  0.54356938  0.13616747     0.40600
H54         H  0.57732524  0.50348189  0.13306636     0.38500
H55         H  0.64303199  0.46007352  0.20654356     0.41600
H56         H  0.57636641  0.37635338  0.29798595     0.36400
H57         H  0.53616753  0.42896793  0.36717276     0.42500
H58         H  0.43251057  0.49390421  0.37374318     0.38900
H59         H  0.61869821  0.48683369  0.14517196     0.43900
H60         H  0.62434713  0.43098316  0.28668853     0.42600
H61         H  0.40020350  0.52309557  0.36632865     0.42700
H62         H  0.35786373  0.54404176  0.20301202     0.43100
O63         O  0.06186135  0.42583773  0.32023626    -0.75800
O64         O  0.04867703  0.38310863  0.27111438    -0.54700
C65         C  0.05421680  0.38473285  0.30247802     0.77900
O66         O  0.91341755  0.52999194  0.31946230    -0.60400
O67         O  0.97318625  0.61009218  0.29789292    -0.53400
C68         C  0.93781092  0.58145209  0.31916776     0.69900
O69         O  0.91607131  0.37985318  0.31526789    -0.75000
O70         O  0.94127551  0.33923454  0.27688345    -0.55500
C71         C  0.92482043  0.34233857  0.30584529     0.75900
O72         O  0.08653475  0.59581276  0.33767270    -0.60100
O73         O  0.09226715  0.64522656  0.29453856    -0.53200
C74         C  0.08812147  0.63765595  0.32568109     0.72500
Zr75       Zr  0.07661543  0.51658048  0.30543655     2.54700
O76         O  0.08977966  0.50934125  0.36449793    -0.80700
O77         O  0.17394872  0.55616463  0.30460715    -0.94100
Zr78       Zr  0.91726548  0.45663658  0.28995535     2.64700
O79         O  0.85990868  0.42196477  0.33815269    -0.99000
O80         O  0.82546698  0.41348162  0.26785407    -0.81100
O81         O  0.99314031  0.45030394  0.28901252    -0.84500
O82         O  0.00212739  0.53127460  0.30273025    -2.19200
O83         O  0.11371276  0.63088647  0.18664756    -0.67800
O84         O  0.07513885  0.66372013  0.22167540    -0.52400
C85         C  0.09847300  0.66471486  0.19440989     0.70900
O86         O  0.94162688  0.40739042  0.15999870    -0.60800
O87         O  0.93651851  0.35178336  0.19984738    -0.52700
C88         C  0.93860904  0.36332231  0.16937215     0.72700
O89         O  0.94000998  0.56715999  0.18032452    -0.72200
O90         O  0.97559305  0.62363747  0.22498393    -0.50800
C91         C  0.95531989  0.61275292  0.19561378     0.74100
O92         O  0.09425829  0.47163513  0.17326843    -0.67500
O93         O  0.04849718  0.39506177  0.20185130    -0.54700
C94         C  0.07706288  0.42184595  0.17758419     0.72500
Zr95       Zr  0.09824870  0.54400071  0.20732442     2.77500
O96         O  0.15244262  0.56838354  0.15747929    -0.98200
O97         O  0.18883874  0.57749632  0.22970238    -0.79000
Zr98       Zr  0.93822619  0.48015831  0.19270727     2.70100
O99         O  0.92509363  0.48953354  0.13394839    -0.80300
O100        O  0.84039199  0.42930650  0.19276152    -0.99400
Zr101      Zr  0.99690828  0.41198476  0.24110684     2.21500
Zr102      Zr  0.02018050  0.58915985  0.25683788     2.11100
O103        O  0.02264755  0.55535254  0.20307819    -2.48100
O104        O  0.01297848  0.47281302  0.20190127    -0.80100
O105        O  0.09734769  0.57879762  0.26104675    -0.72300
O106        O  0.91784466  0.41916487  0.23711150    -2.33200
O107        O  0.08532064  0.48533446  0.25182578    -2.29500
O108        O  0.93199772  0.51533062  0.24553493    -0.74000
H109        H  0.99923002  0.54408668  0.32428984     0.78000
H110        H  0.88567295  0.38520245  0.23293876     0.79000
H111        H  0.02453179  0.57585061  0.18416956     0.81300
H112        H  0.11259709  0.47517722  0.25180989     0.78900
H113        H  0.81181027  0.37485400  0.27016244     0.41900
H114        H  0.82941099  0.45642432  0.19017456     0.40900
H115        H  0.96162656  0.51458598  0.12596424     0.40600
H116        H  0.13188144  0.57601444  0.14075713     0.38500
H117        H  0.20382773  0.61642712  0.23233577     0.41600
H118        H  0.18004661  0.52602321  0.30874300     0.36400
H119        H  0.05466156  0.49951011  0.37439206     0.42500
H120        H  0.88427141  0.43925321  0.35755077     0.38900
H121        H  0.18448802  0.60347440  0.16286829     0.43900
H122        H  0.18689130  0.57833392  0.32520217     0.42600
H123        H  0.83628531  0.43769975  0.33762629     0.42700
H124        H  0.83024522  0.40926948  0.17133218     0.43100
O125        O  0.36819099  0.90813436  0.31460908    -0.75800
O126        O  0.32779748  0.93165742  0.27579932    -0.54700
C127        C  0.33090431  0.91762907  0.30523130     0.77900
O128        O  0.59947258  0.06706357  0.33591133    -0.60400
O129        O  0.63748833  0.03320092  0.30131758    -0.53400
C130        C  0.63522187  0.05398694  0.32934107     0.69900
O131        O  0.44108880  0.06132303  0.33335490    -0.75000
O132        O  0.37528756  0.03416925  0.29383840    -0.55500
C133        C  0.39426370  0.05156407  0.32325768     0.75900
O134        O  0.51234210  0.89114269  0.31098045    -0.60100
O135        O  0.58439279  0.92932242  0.27722509    -0.53200
C136        C  0.56091504  0.90420441  0.30333608     0.72500
Zr137      Zr  0.44143515  0.90464298  0.28594396     2.54700
O138        O  0.40792983  0.84373308  0.33217605    -0.80700
O139        O  0.39105030  0.81741018  0.25866751    -0.94100
Zr140      Zr  0.51910793  0.06108267  0.30940455     2.64700
O141        O  0.51157995  0.05985520  0.36963953    -0.99000
O142        O  0.56584470  0.15794001  0.31344608    -0.81100
O143        O  0.44499237  0.98463877  0.29144132    -0.84500
O144        O  0.52360970  0.98294289  0.30013064    -2.19200
O145        O  0.53957237  0.93288182  0.16812164    -0.67800
O146        O  0.60811219  0.96790669  0.20626038    -0.52400
C147        C  0.58837475  0.94723821  0.17748620     0.70900
O148        O  0.46385874  0.09024916  0.18257154    -0.60800
O149        O  0.40304007  0.07153769  0.22194439    -0.52700
C150        C  0.41780737  0.08236577  0.19212085     0.72700
O151        O  0.62577876  0.10703358  0.19229691    -0.72200
O152        O  0.65795986  0.06946718  0.22817462    -0.50800
C153        C  0.66067994  0.09374885  0.20136021     0.74100
O154        O  0.38399357  0.93716524  0.16348811    -0.67500
O155        O  0.34350929  0.96408521  0.20098890    -0.54700
C156        C  0.34619172  0.94637721  0.17212656     0.72500
Zr157      Zr  0.46137714  0.93746487  0.19064291     2.77500
O158        O  0.45851231  0.93407200  0.13010458    -0.98200
O159        O  0.41062386  0.84051248  0.18782740    -0.79000
Zr160      Zr  0.53956088  0.09407394  0.21385492     2.70100
O161        O  0.57094743  0.15393223  0.16703740    -0.80300
O162        O  0.57531288  0.18266647  0.23871175    -0.99400
Zr163      Zr  0.40431782  0.99934446  0.24832386     2.21500
Zr164      Zr  0.57810015  0.00023633  0.25241060     2.11100
O165        O  0.54378984  0.01607040  0.20221805    -2.48100
O166        O  0.46237872  0.01361316  0.20691625    -0.80100
O167        O  0.49677988  0.91868357  0.23909840    -0.72300
O168        O  0.48507146  0.08128904  0.26118377    -2.33200
O169        O  0.40303922  0.91758029  0.23667813    -2.29500
O170        O  0.57749618  0.08120431  0.26337353    -0.74000
H171        H  0.53792447  0.97761389  0.32043088     0.78000
H172        H  0.47881883  0.11061654  0.26525687     0.79000
H173        H  0.56453237  0.02111865  0.18266269     0.81300
H174        H  0.36715854  0.88846908  0.23182761     0.78900
H175        H  0.60203105  0.16816657  0.32239756     0.41900
H176        H  0.61212007  0.20347370  0.22991546     0.40900
H177        H  0.55853454  0.13014022  0.14712650     0.40600
H178        H  0.49360409  0.96409422  0.12330719     0.38500
H179        H  0.38245374  0.83191486  0.17062312     0.41600
H180        H  0.35535019  0.80040479  0.26916154     0.36400
H181        H  0.42362185  0.86680276  0.35223501     0.42500
H182        H  0.51752246  0.03070034  0.37687898     0.38900
H183        H  0.45983525  0.90160542  0.12388594     0.43900
H184        H  0.40818855  0.79740872  0.26697375     0.42600
H185        H  0.54374293  0.09300058  0.37778241     0.42700
H186        H  0.55483665  0.19737836  0.22761976     0.43100
C187        C  0.04998163  0.12060117  0.36653687     0.79700
N188        N  0.10441305  0.14605753  0.36014950    -0.78600
C189        C  0.13101253  0.19822680  0.35073633     0.82200
N190        N  0.10427387  0.22439118  0.34772623    -0.78500
C191        C  0.05180241  0.20151912  0.35316477     0.82300
N192        N  0.02377211  0.14929432  0.36255513    -0.80300
C193        C  0.11211586  0.22356267  0.06059668     0.79700
N194        N  0.16649907  0.24687942  0.06316725    -0.78600
C195        C  0.19646437  0.29863207  0.07315582     0.82200
N196        N  0.17150456  0.32622353  0.08047038    -0.78500
C197        C  0.11737892  0.30260392  0.08032048     0.82300
N198        N  0.08721501  0.25056730  0.07069296    -0.80300
C199        C  0.08506541  0.85867161  0.06105164     0.79700
N200        N  0.13928691  0.89234771  0.06596507    -0.78600
C201        C  0.17012848  0.87589111  0.08162853     0.82200
N202        N  0.14649211  0.82616711  0.09291782    -0.78500
C203        C  0.09285440  0.79348909  0.09120679     0.82300
N204        N  0.06088211  0.80977705  0.07573699    -0.80300
C205        C  0.88670312  0.09777948  0.08679865     0.79700
N206        N  0.91804449  0.15209332  0.08520786    -0.78600
C207        C  0.89745562  0.18378782  0.09402646     0.82200
N208        N  0.84728651  0.16111982  0.10588290    -0.78500
C209        C  0.81693571  0.10808328  0.10934470     0.82300
N210        N  0.83633469  0.07582799  0.09966362    -0.80300
C211        C  0.89605885  0.12387892  0.43645896     0.79700
N212        N  0.92375831  0.16968836  0.41886437    -0.78600
C213        C  0.89537739  0.18676281  0.40034992     0.82200
N214        N  0.84146867  0.15854768  0.39909803    -0.78500
C215        C  0.81371431  0.11249670  0.41474913     0.82300
N216        N  0.84091024  0.09435768  0.43311403    -0.80300
C217        C  0.21594192  0.12588241  0.43871452     0.79700
N218        N  0.23774027  0.17511463  0.42502958    -0.78600
C219        C  0.28478039  0.19421668  0.40832463     0.82200
N220        N  0.30799304  0.16422224  0.40466444    -0.78500
C221        C  0.28436777  0.11386157  0.41473914     0.82300
N222        N  0.23772048  0.09420600  0.43162654    -0.80300
C223        C  0.08967124  0.89028926  0.40958365     0.79700
N224        N  0.14256844  0.92029091  0.40177830    -0.78600
C225        C  0.17015848  0.89626817  0.39173880     0.82200
N226        N  0.14513561  0.84293285  0.38931049    -0.78500
C227        C  0.09247354  0.81208956  0.39532744     0.82300
N228        N  0.06360593  0.83570835  0.40518455    -0.80300
C229        C  0.19947468  0.09805911  0.08655170     0.79700
N230        N  0.22557422  0.07069432  0.09252489    -0.78600
C231        C  0.27899878  0.09720225  0.09969656     0.82200
N232        N  0.30606581  0.15076666  0.10110121    -0.78500
C233        C  0.28108004  0.17905033  0.09694440     0.82300
N234        N  0.22685343  0.15261618  0.09003567    -0.80300
O235        O  0.06057848  0.13065505  0.06895730    -0.87000
O236        O  0.00324476  0.02986396  0.39314673    -0.87200
O237        O  0.13411562  0.12269815  0.45829439    -0.88800
O238        O  0.97550136  0.12100220  0.45641231    -0.87600
O239        O  0.89042426  0.05913830  0.47189002    -0.87200
O240        O  0.15534661  0.05904123  0.47209099    -0.88500
O241        O  0.04901275  0.11079083  0.42119598    -0.87000
O242        O  0.07830723  0.16418813  0.01602491    -0.86600
Zr243      Zr  0.03926509  0.09104192  0.47691231     2.84300
O244        O  0.95599135  0.02208238  0.45696155    -1.08600
O245        O  0.06906921  0.06069480  0.02059350    -1.09300
C246        C  0.08105690  0.16905823  0.04788386     1.06100
C247        C  0.03186112  0.08278207  0.39469434     1.06100
C248        C  0.16567836  0.10238760  0.45800182     1.09000
C249        C  0.92340711  0.10114774  0.45647375     1.06800
H250        H  0.07235009  0.03039512  0.43714294     0.32400
O251        O  0.04855708  0.02046515  0.45574298    -1.29500
H252        H  0.97545575  0.09189958  0.02552564     0.32000
O253        O  0.97921707  0.06161574  0.01969049    -1.31200
O254        O  0.92429725  0.85513938  0.43310996    -0.87000
O255        O  0.97237817  0.95563100  0.10886321    -0.88500
O256        O  0.08884250  0.93984909  0.45527268    -0.87100
O257        O  0.83128256  0.94171630  0.45712322    -0.87100
O258        O  0.88093868  0.03920936  0.04414409    -0.86800
O259        O  0.14430899  0.04398470  0.04354562    -0.86600
O260        O  0.00356737  0.86087322  0.04355954    -0.87000
O261        O  0.84801122  0.86520306  0.04724295    -0.86500
O262        O  0.08765997  0.92322744  0.02699610    -0.87500
O263        O  0.82333972  0.92460275  0.02939826    -0.86700
O264        O  0.02456443  0.91913545  0.41445347    -0.87100
O265        O  0.10434944  0.06805377  0.08414627    -0.86800
O266        O  0.94731601  0.06377133  0.08423664    -0.86500
O267        O  0.87124109  0.91719402  0.41679226    -0.86900
O268        O  0.90708272  0.82079251  0.48588879    -0.87200
O269        O  0.93208002  0.87456472  0.08083828    -0.88500
Zr270      Zr  0.96580573  0.95226372  0.43555925     2.83100
Zr271      Zr  0.00929177  0.03239404  0.06579022     2.83500
Zr272      Zr  0.08016035  0.99183408  0.99980178     2.84100
Zr273      Zr  0.89722802  0.99119757  0.99967790     2.83400
Zr274      Zr  0.94059172  0.89334720  0.02483851     2.84200
O275        O  0.92810926  0.96263975  0.04425943    -1.09100
O276        O  0.99770045  0.92342061  0.48060000    -1.08600
C277        C  0.90684457  0.81672035  0.45401914     1.06100
C278        C  0.94645770  0.90265759  0.10738394     1.08700
C279        C  0.06523258  0.91751560  0.42741415     1.06300
C280        C  0.82996744  0.91693705  0.42988713     1.06600
C281        C  0.90545121  0.06351934  0.07143915     1.06200
C282        C  0.14553689  0.06842429  0.07075786     1.05800
C283        C  0.05559630  0.88065377  0.04231576     1.06200
C284        C  0.81579986  0.88485449  0.04675338     1.05700
H285        H  0.03733646  0.95429406  0.06336314     0.32400
O286        O  0.02248710  0.96414024  0.04506497    -1.30200
H287        H  0.87334430  0.89085501  0.47620102     0.32400
O288        O  0.90765185  0.92161910  0.48192997    -1.31600
C289        C  0.76880107  0.86646572  0.06920487     0.79700
N290        N  0.74764950  0.82007026  0.08656363    -0.78600
C291        C  0.70591865  0.80797505  0.10753486     0.82200
N292        N  0.68690502  0.84157890  0.11129860    -0.78500
C293        C  0.70800541  0.88776774  0.09547901     0.82300
N294        N  0.74948940  0.90077799  0.07461522    -0.80300
C295        C  0.77600712  0.88481817  0.41404770     0.79700
N296        N  0.75177460  0.83037833  0.41013561    -0.78600
C297        C  0.69818207  0.80138317  0.40155529     0.82200
N298        N  0.67109582  0.82710665  0.39566187    -0.78500
C299        C  0.69536015  0.88046792  0.39675267     0.82300
N300        N  0.74792402  0.90957164  0.40613202    -0.80300
C301        C  0.92966828  0.86473551  0.13558503     0.79700
N302        N  0.95787351  0.83794771  0.13901980    -0.78600
C303        C  0.93206082  0.78541261  0.14778399     0.82200
N304        N  0.87941736  0.76028996  0.15356724    -0.78500
C305        C  0.85068505  0.78474167  0.15143050     0.82300
N306        N  0.87530759  0.83716023  0.14234238    -0.80300
C307        C  0.88125999  0.76305373  0.44053115     0.79700
N308        N  0.82719285  0.73666076  0.43605062    -0.78600
C309        C  0.80197716  0.68687604  0.42274556     0.82200
N310        N  0.83094861  0.66405797  0.41374790    -0.78500
C311        C  0.88497682  0.69050904  0.41702235     0.82300
N312        N  0.91078162  0.74107526  0.42983202    -0.80300
C313        C  0.71099254  0.94875235  0.13840646    -0.26800
C314        C  0.69025375  0.92481026  0.10724019    -0.14900
C315        C  0.63891320  0.91554024  0.09743343     0.35700
C316        C  0.60725651  0.92448255  0.12024482    -0.26300
C317        C  0.62519571  0.94201384  0.15316724    -0.15500
C318        C  0.67906428  0.95630020  0.16173678     0.36800
N319        N  0.70072157  0.97567011  0.19457424    -0.89800
H320        H  0.75002352  0.95510681  0.14623420     0.22200
H321        H  0.56744637  0.91565882  0.11234273     0.17900
N322        N  0.61677027  0.89450043  0.06495488    -0.88800
H323        H  0.74154314  0.98736373  0.19596967     0.35300
H324        H  0.68117539  0.94377443  0.21065984     0.40400
H325        H  0.64490235  0.89157496  0.05016549     0.40000
H326        H  0.58435308  0.85589991  0.06773445     0.34900
C327        C  0.78536736  0.10042928  0.16574920    -0.26800
C328        C  0.77166210  0.09084066  0.13185222    -0.14900
C329        C  0.72166315  0.08364056  0.12073591     0.35700
C330        C  0.68745230  0.08790039  0.14369095    -0.26300
C331        C  0.70188669  0.09898256  0.17755998    -0.15500
C332        C  0.75112094  0.10448486  0.18859297     0.36800
N333        N  0.76706762  0.11532696  0.22290642    -0.89800
H334        H  0.82454605  0.10803422  0.17429208     0.17900
H335        H  0.64865117  0.08113897  0.13505116     0.17900
N336        N  0.70495646  0.07313318  0.08640753    -0.88800
H337        H  0.80370204  0.15119898  0.22465678     0.35300
H338        H  0.77339083  0.08498214  0.23141673     0.40400
H339        H  0.73306885  0.06936577  0.07214379     0.40000
H340        H  0.66963787  0.03601832  0.08492734     0.34900
C341        C  0.70565912  0.03588738  0.35263842    -0.26800
C342        C  0.67499004  0.06118617  0.35620839    -0.14900
C343        C  0.68292051  0.09236518  0.38545585     0.35700
C344        C  0.72337113  0.10024712  0.40869928    -0.26300
C345        C  0.75750738  0.07952607  0.40308651    -0.15500
C346        C  0.74699485  0.04541527  0.37527953     0.36800
N347        N  0.78159638  0.02464728  0.36752327    -0.89800
H348        H  0.69982929  0.01092800  0.33098608     0.17900
H349        H  0.73253820  0.12800320  0.42934955     0.17900
N350        N  0.65263578  0.11892273  0.39063838    -0.88800
H351        H  0.82008720  0.05648884  0.36304392     0.35300
H352        H  0.78428292  0.00514020  0.38837315     0.40400
H353        H  0.66450635  0.14837988  0.37277603     0.40000
H354        H  0.66229613  0.13874178  0.41371628     0.34900
C355        C  0.58941232  0.90476535  0.36174072    -0.26800
C356        C  0.59510229  0.89698781  0.32778672    -0.14900
C357        C  0.63983575  0.89314306  0.31744496     0.35700
C358        C  0.67748869  0.89692023  0.34113495    -0.26300
C359        C  0.67040394  0.90206326  0.37508742    -0.15500
C360        C  0.62652230  0.90715355  0.38554512     0.36800
N361        N  0.61811720  0.91387036  0.41995870    -0.89800
H362        H  0.55654541  0.91014182  0.36981382     0.17900
H363        H  0.71018269  0.89099084  0.33334567     0.17900
N364        N  0.64617894  0.88414254  0.28300740    -0.88800
H365        H  0.61987089  0.95062036  0.42262023     0.35300
H366        H  0.64940062  0.91655408  0.43481157     0.40400
H367        H  0.61399610  0.84671656  0.27598342     0.40000
H368        H  0.68127684  0.88236411  0.27961181     0.34900
C369        C  0.28848566  0.06171017  0.15104693    -0.26800
C370        C  0.30408994  0.07219447  0.11800282    -0.14900
C371        C  0.35535564  0.08170754  0.10893566     0.35700
C372        C  0.39142593  0.08471798  0.13354857    -0.26300
C373        C  0.37798420  0.07962479  0.16729733    -0.15500
C374        C  0.32488172  0.06691966  0.17589139     0.36800
N375        N  0.30690674  0.06179427  0.20944425    -0.89800
H376        H  0.24961083  0.05581096  0.15827114     0.17900
H377        H  0.43079145  0.09247302  0.12608921     0.17900
N378        N  0.37265930  0.09067339  0.07512766    -0.88800
H379        H  0.33215261  0.09703779  0.22274675     0.35300
H380        H  0.30721122  0.02956500  0.22041860     0.40400
H381        H  0.34139883  0.08514740  0.05910519     0.40000
H382        H  0.40320864  0.13045329  0.07350000     0.34900
C383        C  0.31152068  0.93252871  0.11305621    -0.26800
C384        C  0.30313382  0.93676704  0.14713402    -0.14900
C385        C  0.25359510  0.93215000  0.15673055     0.35700
C386        C  0.21442910  0.92302595  0.13245848    -0.26300
C387        C  0.22078481  0.91332264  0.09911537    -0.15500
C388        C  0.27070615  0.92006180  0.08907182     0.36800
N389        N  0.28033085  0.91212842  0.05511797    -0.89800
H390        H  0.34942838  0.93706394  0.10499935     0.17900
H391        H  0.17553438  0.91634602  0.14029120     0.17900
N392        N  0.24138330  0.93320280  0.19117329    -0.88800
H393        H  0.31234689  0.94817277  0.04709763     0.35300
H394        H  0.24733012  0.90416155  0.03996018     0.40400
H395        H  0.23812569  0.89912700  0.20192904     0.40000
H396        H  0.20397358  0.93059431  0.19380843     0.34900
C397        C  0.25405460  0.93094292  0.31873297    -0.26800
C398        C  0.29292258  0.91827333  0.32979879    -0.14900
C399        C  0.29850697  0.91321486  0.36430383     0.35700
C400        C  0.26235828  0.91621046  0.38616964    -0.26300
C401        C  0.22099208  0.92416143  0.37448539    -0.15500
C402        C  0.21883013  0.93497288  0.34078895     0.36800
N403        N  0.17892362  0.94712266  0.32880571    -0.89800
H404        H  0.25030388  0.93696680  0.29260775     0.17900
H405        H  0.26310873  0.90703288  0.41208516     0.17900
N406        N  0.33965081  0.90366985  0.37715759    -0.88800
H407        H  0.18380787  0.95558271  0.30351969     0.35300
H408        H  0.14103350  0.91320118  0.33108855     0.40400
H409        H  0.32931378  0.86488271  0.36995032     0.40000
H410        H  0.34021438  0.90459617  0.40310757     0.34900
C411        C  0.28634923  0.07558057  0.36120886    -0.26800
C412        C  0.29930152  0.07996553  0.39522890    -0.14900
C413        C  0.34097108  0.07124835  0.40577833     0.35700
C414        C  0.36982903  0.05992411  0.38194638    -0.26300
C415        C  0.35960389  0.05960938  0.34754590    -0.15500
C416        C  0.31679218  0.06738136  0.33723069     0.36800
N417        N  0.30693553  0.07151396  0.30262263    -0.89800
H418        H  0.25553214  0.08425644  0.35305536     0.17900
H419        H  0.40183520  0.05322699  0.39030581     0.17900
N420        N  0.35496453  0.07562861  0.44046238    -0.88800
H421        H  0.27883112  0.08406151  0.29968054     0.35300
H422        H  0.28902522  0.03334397  0.29190555     0.40400
H423        H  0.36986559  0.11523130  0.44812285     0.40000
H424        H  0.38617464  0.06751338  0.44420428     0.34900
C425        C  0.08085920  0.76965020  0.14908590    -0.26800
C426        C  0.07416502  0.75136396  0.11592677    -0.14900
C427        C  0.07713929  0.70537047  0.10873305     0.35700
C428        C  0.08783482  0.67940585  0.13453137    -0.26300
C429        C  0.09672696  0.69896994  0.16762456    -0.15500
C430        C  0.09288011  0.74471484  0.17481292     0.36800
N431        N  0.10236984  0.76651724  0.20806056    -0.89800
H432        H  0.08180445  0.80685444  0.15443481     0.17900
H433        H  0.08876798  0.64333134  0.12869249     0.17900
N434        N  0.07240818  0.68713498  0.07488119    -0.88800
H435        H  0.14250200  0.77951133  0.21437743     0.35300
H436        H  0.09794573  0.80014181  0.20915933     0.40400
H437        H  0.03341701  0.67541010  0.06648686     0.40000
H438        H  0.07644740  0.65330153  0.07349238     0.34900
C439        C  0.97139101  0.70614498  0.19935372    -0.26800
C440        C  0.95381425  0.65908107  0.17966554    -0.14900
C441        C  0.94092171  0.66112688  0.14587473     0.35700
C442        C  0.94161378  0.70708445  0.13391235    -0.26300
C443        C  0.95735595  0.75280713  0.15427202    -0.15500
C444        C  0.97420888  0.75254250  0.18698937     0.36800
N445        N  0.99217657  0.79899834  0.20814393    -0.89800
H446        H  0.98318050  0.70739908  0.22507463     0.17900
H447        H  0.92668044  0.70596284  0.10894897     0.17900
N448        N  0.92633320  0.61741196  0.12319905    -0.88800
H449        H  0.00514660  0.79333071  0.23125733     0.35300
H450        H  0.95927051  0.80412066  0.21262960     0.40400
H451        H  0.95823966  0.60985315  0.12219211     0.40000
H452        H  0.89235935  0.58383534  0.13209468     0.34900
C453        C  0.90195431  0.61782470  0.40259868    -0.26800
C454        C  0.91258274  0.66966881  0.39677778    -0.14900
C455        C  0.93353418  0.69324464  0.36611167     0.35700
C456        C  0.94094786  0.66342557  0.34123621    -0.26300
C457        C  0.92811071  0.61051572  0.34632986    -0.15500
C458        C  0.91059122  0.58829970  0.37800037     0.36800
N459        N  0.90129312  0.53596348  0.38513803    -0.89800
H460        H  0.88460280  0.59953507  0.42598449     0.17900
H461        H  0.95556603  0.68132212  0.31736708     0.17900
N462        N  0.94435584  0.74635790  0.35967577    -0.88800
H463        H  0.88741621  0.52536138  0.40929169     0.35300
H464        H  0.93843161  0.53757365  0.38433644     0.40400
H465        H  0.90773366  0.74571474  0.35963541     0.40000
H466        H  0.95950545  0.75774859  0.33588330     0.34900
C467        C  0.07606283  0.71667987  0.32910112    -0.26800
C468        C  0.08049069  0.67706285  0.34634690    -0.14900
C469        C  0.07437727  0.67560299  0.38130038     0.35700
C470        C  0.07004573  0.71691074  0.39792961    -0.26300
C471        C  0.06896370  0.75799947  0.38025132    -0.15500
C472        C  0.07016404  0.75614216  0.34540667     0.36800
N473        N  0.07142182  0.79821586  0.32644230    -0.89800
H474        H  0.07862793  0.71851545  0.30231084     0.17900
H475        H  0.07114205  0.71902527  0.42480368     0.17900
N476        N  0.07467110  0.63390760  0.39993185    -0.88800
H477        H  0.04055455  0.78113092  0.30850942     0.35300
H478        H  0.10790153  0.81718032  0.31394244     0.40400
H479        H  0.04003761  0.59822369  0.39302729     0.40000
H480        H  0.07139029  0.63965455  0.42528136     0.34900
C481        C  0.92429787  0.32074657  0.11185098    -0.26800
C482        C  0.94010157  0.32401604  0.14532056    -0.14900
C483        C  0.95622238  0.28748319  0.15624375     0.35700
C484        C  0.95513732  0.24916120  0.13438108    -0.26300
C485        C  0.93145132  0.24070174  0.10294506    -0.15500
C486        C  0.91821949  0.27850478  0.09089318     0.36800
N487        N  0.89565596  0.27313637  0.05816719    -0.89800
H488        H  0.91269812  0.34849229  0.10261221     0.17900
H489        H  0.96433091  0.21992791  0.14421546     0.17900
N490        N  0.97016527  0.28598720  0.19025887    -0.88800
H491        H  0.85578520  0.26405763  0.06072702     0.35300
H492        H  0.89481471  0.24136287  0.04508181     0.40400
H493        H  0.00753403  0.28819445  0.19104099     0.40000
H494        H  0.94195466  0.24894264  0.19952956     0.34900
C495        C  0.10986269  0.32419621  0.13728709    -0.26800
C496        C  0.09638473  0.32596777  0.10395244    -0.14900
C497        C  0.07753046  0.36047227  0.09464845     0.35700
C498        C  0.07294469  0.39272222  0.11912431    -0.26300
C499        C  0.08780057  0.39175822  0.15230897    -0.15500
C500        C  0.10712243  0.35760718  0.16146002     0.36800
N501        N  0.12746026  0.35964168  0.19457147    -0.89800
H502        H  0.12627065  0.29903753  0.14403357     0.17900
H503        H  0.05706964  0.41824348  0.11228040     0.17900
N504        N  0.06294203  0.36387037  0.06096410    -0.88800
H505        H  0.14373528  0.33460749  0.19634036     0.35300
H506        H  0.09534831  0.34463196  0.21083045     0.40400
H507        H  0.06652909  0.33678068  0.04541337     0.40000
H508        H  0.09011151  0.40205714  0.05275598     0.34900
C509        C  0.05373131  0.33069068  0.35191908    -0.26800
C510        C  0.04716785  0.33423713  0.31760335    -0.14900
C511        C  0.02961621  0.28698516  0.29775326     0.35700
C512        C  0.02066053  0.23953969  0.31205072    -0.26300
C513        C  0.03006930  0.23671851  0.34573761    -0.15500
C514        C  0.04626970  0.28287832  0.36601217     0.36800
N515        N  0.05645843  0.28130546  0.40084949    -0.89800
H516        H  0.06584097  0.36550717  0.36771801     0.17900
H517        H  0.01124601  0.20570056  0.29582234     0.17900
N518        N  0.02137266  0.28632558  0.26260981    -0.88800
H519        H  0.06656740  0.31762506  0.41252720     0.35300
H520        H  0.09006825  0.27662992  0.40342434     0.40400
H521        H  0.98145764  0.25751162  0.25704849     0.40000
H522        H  0.04630314  0.27464541  0.25097344     0.34900
C523        C  0.90737666  0.25170218  0.31989575    -0.26800
C524        C  0.92041733  0.30309064  0.33060847    -0.14900
C525        C  0.93438938  0.31805316  0.36449749     0.35700
C526        C  0.93293717  0.28072662  0.38696774    -0.26300
C527        C  0.91869137  0.22926926  0.37628470    -0.15500
C528        C  0.90588650  0.21472174  0.34244980     0.36800
N529        N  0.88800846  0.16104022  0.33146186    -0.89800
H530        H  0.89724290  0.23978006  0.29403016     0.17900
H531        H  0.94017319  0.29089489  0.41320626     0.17900
N532        N  0.95012483  0.37106004  0.37607626    -0.88800
H533        H  0.91278979  0.16201207  0.31236675     0.35300
H534        H  0.84900956  0.14487014  0.32160019     0.40400
H535        H  0.98646158  0.39719208  0.36492122     0.40000
H536        H  0.95798613  0.37503354  0.40164925     0.34900
C537        C  0.67488196  0.74706480  0.35185016    -0.26800
C538        C  0.67166638  0.74731352  0.38638382    -0.14900
C539        C  0.62600450  0.70533222  0.40124448     0.35700
C540        C  0.58340209  0.66569838  0.38113241    -0.26300
C541        C  0.58398880  0.66902132  0.34621438    -0.15500
C542        C  0.63161855  0.71087146  0.33181019     0.36800
N543        N  0.63724295  0.72032554  0.29689879    -0.89800
H544        H  0.70873664  0.78014605  0.34002591     0.17900
H545        H  0.54852821  0.63383104  0.39284480     0.17900
N546        N  0.62151580  0.70552365  0.43669153    -0.88800
H547        H  0.63517570  0.68749875  0.28460774     0.35300
H548        H  0.60698091  0.72740120  0.28835736     0.40400
H549        H  0.65257310  0.70102309  0.44685677     0.40000
H550        H  0.58539107  0.67268739  0.44400379     0.34900
C551        C  0.71033380  0.61492767  0.41211859    -0.26800
C552        C  0.75089654  0.66663436  0.40536992    -0.14900
C553        C  0.75099736  0.68931870  0.37463859     0.35700
C554        C  0.71393050  0.65808513  0.35008592    -0.26300
C555        C  0.67554863  0.60462836  0.35560466    -0.15500
C556        C  0.67236121  0.58369376  0.38772032     0.36800
N557        N  0.63209404  0.53093523  0.39635428    -0.89800
H558        H  0.71079387  0.59727719  0.43557513     0.17900
H559        H  0.71647673  0.67559503  0.32610048     0.17900
N560        N  0.79084227  0.74280892  0.36679573    -0.88800
H561        H  0.59415439  0.52619279  0.39136454     0.35300
H562        H  0.63746438  0.50357036  0.38224481     0.40400
H563        H  0.82885340  0.74656708  0.36824574     0.40000
H564        H  0.78919289  0.76864618  0.38441568     0.34900
C565        C  0.78558172  0.74925613  0.19537893    -0.26800
C566        C  0.79415276  0.75108176  0.16129674    -0.14900
C567        C  0.75932857  0.70564805  0.14148995     0.35700
C568        C  0.71687678  0.65983722  0.15619132    -0.26300
C569        C  0.70956877  0.65722510  0.19071780    -0.15500
C570        C  0.74536474  0.70349393  0.21033668     0.36800
N571        N  0.74485775  0.70489678  0.24589410    -0.89800
H572        H  0.81405136  0.78219618  0.21117623     0.17900
H573        H  0.68999106  0.62581805  0.14063439     0.17900
N574        N  0.76968468  0.70504558  0.10672479    -0.88800
H575        H  0.74546722  0.67164542  0.25503690     0.35300
H576        H  0.71081584  0.70569390  0.25376511     0.40400
H577        H  0.76449279  0.73453353  0.09563368     0.40000
H578        H  0.74140108  0.66873914  0.09558008     0.34900
C579        C  0.64735374  0.74050240  0.18623189    -0.26800
C580        C  0.60303709  0.69282154  0.17426841    -0.14900
C581        C  0.60119860  0.67885095  0.14022758     0.35700
C582        C  0.64086774  0.71426443  0.11865379    -0.26300
C583        C  0.68289208  0.76331115  0.13037625    -0.15500
C584        C  0.68683094  0.77599014  0.16467257     0.36800
N585        N  0.72847050  0.82733737  0.17685945    -0.89800
H586        H  0.65054288  0.75078314  0.21242962     0.17900
H587        H  0.63667409  0.70494355  0.09227667     0.17900
N588        N  0.55951401  0.62847043  0.12738769    -0.88800
H589        H  0.72609552  0.83071028  0.20257038     0.35300
H590        H  0.76559986  0.83036579  0.17226726     0.40400
H591        H  0.57758437  0.60807905  0.11721399     0.40000
H592        H  0.53919462  0.63555518  0.10827584     0.34900
C593        C  0.32859198  0.39096443  0.11347539    -0.26800
C594        C  0.31568175  0.37292080  0.14613995    -0.14900
C595        C  0.26787031  0.32474326  0.15191516     0.35700
C596        C  0.23471707  0.29508449  0.12524278    -0.26300
C597        C  0.24501120  0.31533097  0.09313564    -0.15500
C598        C  0.29285993  0.36335989  0.08708988     0.36800
N599        N  0.30490400  0.38572857  0.05472194    -0.89800
H600        H  0.36561293  0.42756740  0.10857480     0.17900
H601        H  0.19676682  0.25951948  0.13041720     0.17900
N602        N  0.25053988  0.30784820  0.18498435    -0.88800
H603        H  0.30507555  0.35749531  0.03840425     0.35300
H604        H  0.27427670  0.39288751  0.04711179     0.40400
H605        H  0.21339921  0.30565087  0.18804438     0.40000
H606        H  0.24457470  0.26953770  0.18757268     0.34900
C607        C  0.34874513  0.27449748  0.16633059    -0.26800
C608        C  0.39600378  0.31465954  0.15163527    -0.14900
C609        C  0.39802171  0.31555941  0.11668189     0.35700
C610        C  0.35565439  0.27391227  0.09762574    -0.26300
C611        C  0.31014211  0.23244476  0.11289668    -0.15500
C612        C  0.30658551  0.23423926  0.14765600     0.36800
N613        N  0.26216267  0.19289215  0.16501894    -0.89800
H614        H  0.34436339  0.27314012  0.19302905     0.17900
H615        H  0.35991761  0.27215446  0.07103288     0.17900
N616        N  0.44340808  0.35731753  0.10048629    -0.88800
H617        H  0.26108407  0.15674060  0.16085066     0.35300
H618        H  0.22657992  0.18946473  0.15549235     0.40400
H619        H  0.46058422  0.34001419  0.08578701     0.40000
H620        H  0.42937903  0.37629671  0.08479720     0.34900
C621        C  0.38063063  0.31894982  0.36803238    -0.26800
C622        C  0.37602494  0.29915398  0.33528186    -0.14900
C623        C  0.33214841  0.24862729  0.32658334     0.35700
C624        C  0.29544259  0.21849873  0.35087113    -0.26300
C625        C  0.30308909  0.23639044  0.38417799    -0.15500
C626        C  0.34513003  0.28762665  0.39268795     0.36800
N627        N  0.35264768  0.30685256  0.42647812    -0.89800
H628        H  0.41277085  0.35868636  0.37471612     0.17900
H629        H  0.26394974  0.17823582  0.34442930     0.17900
N630        N  0.32622152  0.22638933  0.29378783    -0.88800
H631        H  0.38494163  0.34593324  0.42845811     0.35300
H632        H  0.36318201  0.28353670  0.44073806     0.40400
H633        H  0.28820722  0.21638523  0.28445327     0.40000
H634        H  0.32743450  0.19108694  0.29559251     0.34900
C635        C  0.19711600  0.23247231  0.30769301    -0.26800
C636        C  0.18783482  0.23031022  0.34173061    -0.14900
C637        C  0.22189492  0.27583656  0.36166688     0.35700
C638        C  0.26531304  0.32125298  0.34756779    -0.26300
C639        C  0.27370070  0.32375861  0.31320543    -0.15500
C640        C  0.23734980  0.27898891  0.29318234     0.36800
N641        N  0.23875051  0.28133983  0.25772474    -0.89800
H642        H  0.16856829  0.20012037  0.29157058     0.17900
H643        H  0.29191780  0.35479484  0.36354281     0.17900
N644        N  0.21020068  0.27712386  0.39603166    -0.88800
H645        H  0.20154887  0.27514202  0.24912690     0.35300
H646        H  0.24350871  0.25011473  0.24854475     0.40400
H647        H  0.20337290  0.30892889  0.39994141     0.40000
H648        H  0.24412168  0.28482906  0.41013148     0.34900
O649        O  0.46221333  0.37622676  0.82137916    -0.75800
O650        O  0.40278542  0.33007556  0.77986706    -0.54700
C651        C  0.41789281  0.33641722  0.81040333     0.77900
O652        O  0.49805260  0.58561363  0.83754152    -0.60400
O653        O  0.54177973  0.63459354  0.79484240    -0.53400
C654        C  0.53775855  0.62849798  0.82593176     0.69900
O655        O  0.35388581  0.41396302  0.81556696    -0.75000
O656        O  0.33789744  0.36021679  0.77034677    -0.55500
C657        C  0.32539360  0.36934604  0.79898774     0.75900
O658        O  0.61452506  0.52587911  0.82722901    -0.60100
O659        O  0.63225218  0.60449073  0.80505946    -0.53200
C660        C  0.63987202  0.57705474  0.82678043     0.72500
Zr661      Zr  0.53979893  0.45189410  0.79705505     2.54700
O662        O  0.56141769  0.42421847  0.84896940    -0.80700
O663        O  0.58852912  0.40658038  0.78131825    -0.94100
Zr664      Zr  0.43348987  0.50409488  0.80404248     2.64700
O665        O  0.40466722  0.49253383  0.86149591    -0.99000
O666        O  0.37541512  0.54197506  0.79652015    -0.81100
O667        O  0.45650691  0.44163069  0.79078517    -0.84500
O668        O  0.52480862  0.52373528  0.80695119    -2.19200
O669        O  0.63679575  0.56705197  0.69024781    -0.67800
O670        O  0.64814930  0.62426995  0.73279403    -0.52400
C671        C  0.66295031  0.61362689  0.70548785     0.70900
O672        O  0.38269571  0.45649379  0.67128013    -0.60800
O673        O  0.35507936  0.37925630  0.69857466    -0.52700
C674        C  0.35293710  0.40583337  0.67411454     0.72700
O675        O  0.51793910  0.61858346  0.68746691    -0.72200
O676        O  0.58454648  0.65565857  0.72690651    -0.50800
C677        C  0.56501768  0.65497516  0.69804961     0.74100
O678        O  0.47998832  0.40266445  0.66449286    -0.67500
O679        O  0.43411665  0.34522938  0.70413336    -0.54700
C680        C  0.44077675  0.35709151  0.67369906     0.72500
Zr681      Zr  0.55289856  0.47611192  0.69973761     2.77500
O682        O  0.58235644  0.47922349  0.64288518    -0.98200
O683        O  0.60487422  0.43155170  0.70681831    -0.79000
Zr684      Zr  0.44782325  0.53017834  0.70625457     2.70100
O685        O  0.42169306  0.55271874  0.65394856    -0.80300
O686        O  0.39010998  0.56403761  0.72493186    -0.99400
Zr687      Zr  0.42046830  0.40052476  0.74204604     2.21500
Zr688      Zr  0.56668771  0.58178665  0.76154794     2.11100
O689        O  0.53743382  0.54740414  0.70663375    -2.48100
O690        O  0.46750451  0.46305618  0.70410298    -0.80100
O691        O  0.58731632  0.51219748  0.75398386    -0.72300
O692        O  0.39921005  0.46964957  0.74928703    -2.33200
O693        O  0.50954744  0.41368202  0.74322985    -2.29500
O694        O  0.47719304  0.56655528  0.76055479    -0.74000
H695        H  0.53913469  0.53764123  0.82874741     0.78000
H696        H  0.36104027  0.45639907  0.74718955     0.79000
H697        H  0.55733265  0.56890532  0.68838836     0.81300
H698        H  0.51095000  0.38129445  0.74048709     0.78900
H699        H  0.33989233  0.51115859  0.79013827     0.41900
H700        H  0.40884422  0.60169480  0.71806027     0.40900
H701        H  0.44700633  0.55254845  0.63751431     0.40600
H702        H  0.58145242  0.50988320  0.63309151     0.38500
H703        H  0.64207716  0.46090678  0.71138133     0.41600
H704        H  0.56804768  0.37095148  0.79127280     0.36400
H705        H  0.54067460  0.43077597  0.86600179     0.42500
H706        H  0.43620115  0.49744183  0.87460508     0.38900
H707        H  0.62111168  0.49089165  0.64492623     0.43900
H708        H  0.62253313  0.42505605  0.79447706     0.42600
H709        H  0.40176440  0.52436044  0.86701500     0.42700
H710        H  0.35791437  0.54607868  0.71014276     0.43100
O711        O  0.06733963  0.42921758  0.81960905    -0.75800
O712        O  0.05406181  0.38611145  0.77065770    -0.54700
C713        C  0.05888075  0.38761867  0.80206077     0.77900
O714        O  0.92149995  0.53537504  0.81956141    -0.60400
O715        O  0.98073709  0.61505775  0.79727908    -0.53400
C716        C  0.94561106  0.58669425  0.81878176     0.69900
O717        O  0.92364294  0.38679239  0.81732700    -0.75000
O718        O  0.94628403  0.34434477  0.77870777    -0.55500
C719        C  0.93088883  0.34841333  0.80785685     0.75900
O720        O  0.09593148  0.60110984  0.83554572    -0.60100
O721        O  0.10058466  0.65052045  0.79258437    -0.53200
C722        C  0.09727910  0.64294782  0.82370079     0.72500
Zr723      Zr  0.08429586  0.52059791  0.80418046     2.54700
O724        O  0.10265186  0.51628045  0.86280422    -0.80700
O725        O  0.18153978  0.55959839  0.80191389    -0.94100
Zr726      Zr  0.92452705  0.46187450  0.79031123     2.64700
O727        O  0.86374231  0.42776548  0.83702733    -0.99000
O728        O  0.83325625  0.41717577  0.76728918    -0.81100
O729        O  0.99989926  0.45462450  0.78903161    -0.84500
O730        O  0.01016634  0.53618481  0.80240343    -2.19200
O731        O  0.11838933  0.63168457  0.68431850    -0.67800
O732        O  0.08300098  0.66645222  0.72037362    -0.52400
C733        C  0.10468575  0.66643534  0.69261728     0.70900
O734        O  0.94194858  0.40735176  0.66155471    -0.60800
O735        O  0.93961671  0.35290791  0.70154962    -0.52700
C736        C  0.93923726  0.36342746  0.67105828     0.72700
O737        O  0.94522552  0.57080003  0.68056011    -0.72200
O738        O  0.98307993  0.62806952  0.72466643    -0.50800
C739        C  0.96152361  0.61674425  0.69567141     0.74100
O740        O  0.09605618  0.47249141  0.67148257    -0.67500
O741        O  0.05017987  0.39646780  0.70060523    -0.54700
C742        C  0.07802574  0.42258521  0.67593134     0.72500
Zr743      Zr  0.10294482  0.54569298  0.70603229     2.77500
O744        O  0.16123615  0.56921767  0.65809076    -0.98200
O745        O  0.19267636  0.58125898  0.73026363    -0.79000
Zr746      Zr  0.94271221  0.48339068  0.69303448     2.70100
O747        O  0.92973458  0.49135747  0.63404288    -0.80300
O748        O  0.84487579  0.43654657  0.69349226    -0.99400
Zr749      Zr  0.00165006  0.41492812  0.74128467     2.21500
Zr750      Zr  0.02730965  0.59316492  0.75613630     2.11100
O751        O  0.02784312  0.55813919  0.70235734    -2.48100
O752        O  0.01709104  0.47520807  0.70178316    -0.80100
O753        O  0.10385659  0.58181636  0.75952631    -0.72300
O754        O  0.92318924  0.42309172  0.73767379    -2.33200
O755        O  0.09091299  0.48762610  0.75067246    -2.29500
O756        O  0.93850408  0.51996052  0.74576316    -0.74000
H757        H  0.00783546  0.54960526  0.82388333     0.78000
H758        H  0.89076523  0.38920491  0.73381989     0.79000
H759        H  0.02920587  0.57828011  0.68335658     0.81300
H760        H  0.11787414  0.47705737  0.75034707     0.78900
H761        H  0.81729154  0.37982404  0.77448822     0.41900
H762        H  0.83598354  0.46514513  0.69665319     0.40900
H763        H  0.96663603  0.51229695  0.62541877     0.40600
H764        H  0.13967757  0.57115423  0.63942581     0.38500
H765        H  0.20777535  0.62035397  0.73101484     0.41600
H766        H  0.18727668  0.52869812  0.80252468     0.36400
H767        H  0.06760350  0.50372354  0.87358521     0.42500
H768        H  0.88675840  0.44477909  0.85698162     0.38900
H769        H  0.18999520  0.60659476  0.66233341     0.43900
H770        H  0.19507614  0.57775931  0.82377591     0.42600
H771        H  0.84058183  0.44393850  0.83539686     0.42700
H772        H  0.83375903  0.42394725  0.67025869     0.43100
O773        O  0.37191603  0.90960873  0.81627590    -0.75800
O774        O  0.32970315  0.93255438  0.77830453    -0.54700
C775        C  0.33377869  0.91810629  0.80750110     0.77900
O776        O  0.60228212  0.06965125  0.83483849    -0.60400
O777        O  0.63954554  0.03518016  0.80015781    -0.53400
C778        C  0.63797367  0.05664385  0.82805449     0.69900
O779        O  0.44268095  0.06054078  0.83408499    -0.75000
O780        O  0.37626300  0.03386608  0.79503837    -0.55500
C781        C  0.39565542  0.05074216  0.82446485     0.75900
O782        O  0.51497675  0.89197861  0.80944468    -0.60100
O783        O  0.58611074  0.93038753  0.77517120    -0.53200
C784        C  0.56342974  0.90525142  0.80137049     0.72500
Zr785      Zr  0.44343780  0.90587235  0.78613010     2.54700
O786        O  0.41276468  0.84517366  0.83253231    -0.80700
O787        O  0.38866347  0.81874542  0.75937951    -0.94100
Zr788      Zr  0.52097911  0.06244798  0.80915588     2.64700
O789        O  0.51658558  0.06385631  0.86954156    -0.99000
O790        O  0.56645806  0.15928757  0.81312811    -0.81100
O791        O  0.44680578  0.98573402  0.79161434    -0.84500
O792        O  0.52575482  0.98431001  0.80002544    -2.19200
O793        O  0.53815033  0.93194411  0.66836910    -0.67800
O794        O  0.60789941  0.96800555  0.70564712    -0.52400
C795        C  0.58697584  0.94608658  0.67731363     0.70900
O796        O  0.46360798  0.08987738  0.68222997    -0.60800
O797        O  0.40153121  0.06996150  0.72112275    -0.52700
C798        C  0.41729121  0.08170226  0.69146703     0.72700
O799        O  0.62652481  0.10875525  0.69228952    -0.72200
O800        O  0.65873399  0.07061528  0.72767641    -0.50800
C801        C  0.66170194  0.09572903  0.70124480     0.74100
O802        O  0.38262046  0.93520015  0.66470245    -0.67500
O803        O  0.34253976  0.96278256  0.70207738    -0.54700
C804        C  0.34497586  0.94459142  0.67328802     0.72500
Zr805      Zr  0.46151351  0.93816532  0.69096995     2.77500
O806        O  0.45915303  0.93972652  0.63050112    -0.98200
O807        O  0.41239912  0.84120722  0.68758829    -0.79000
Zr808      Zr  0.53964938  0.09479327  0.71367164     2.70100
O809        O  0.57038009  0.15469816  0.66685811    -0.80300
O810        O  0.57305348  0.18266409  0.73913096    -0.99400
Zr811      Zr  0.40464059  0.99956693  0.74895799     2.21500
Zr812      Zr  0.57915500  0.00156125  0.75179223     2.11100
O813        O  0.54424454  0.01702884  0.70180629    -2.48100
O814        O  0.46265683  0.01409009  0.70757292    -0.80100
O815        O  0.49791852  0.91981651  0.73901139    -0.72300
O816        O  0.48547889  0.08190977  0.76124327    -2.33200
O817        O  0.40377612  0.91814358  0.73724164    -2.29500
O818        O  0.57865837  0.08253425  0.76281462    -0.74000
H819        H  0.54058555  0.97892517  0.82009961     0.78000
H820        H  0.47883863  0.11097865  0.76533393     0.79000
H821        H  0.56508344  0.02206821  0.68226902     0.81300
H822        H  0.36786986  0.88893884  0.73257922     0.78900
H823        H  0.60353341  0.17019068  0.82064663     0.41900
H824        H  0.60904010  0.20498233  0.72953188     0.40900
H825        H  0.56650273  0.13168823  0.64743488     0.40600
H826        H  0.49375898  0.97122289  0.62451532     0.38500
H827        H  0.41458172  0.83254875  0.66401353     0.41600
H828        H  0.35847011  0.79883301  0.77462425     0.36400
H829        H  0.42691207  0.86858903  0.85256376     0.42500
H830        H  0.52433845  0.03602334  0.87710073     0.38900
H831        H  0.46209674  0.90871225  0.62287281     0.43900
H832        H  0.41072629  0.80141620  0.76119452     0.42600
H833        H  0.54832374  0.09803133  0.87682873     0.42700
H834        H  0.55049088  0.19588015  0.72907196     0.43100
C835        C  0.05154413  0.12132193  0.86564370     0.79700
N836        N  0.10591137  0.14588006  0.85933056    -0.78600
C837        C  0.13338856  0.19799348  0.84986574     0.82200
N838        N  0.10753387  0.22509096  0.84669353    -0.78500
C839        C  0.05512038  0.20318790  0.85220549     0.82300
N840        N  0.02633542  0.15102506  0.86173682    -0.80300
C841        C  0.11278807  0.22313751  0.56117740     0.79700
N842        N  0.16717451  0.24726325  0.56404442    -0.78600
C843        C  0.19621610  0.29935674  0.57343184     0.82200
N844        N  0.17035233  0.32642769  0.57966106    -0.78500
C845        C  0.11615581  0.30188200  0.57926748     0.82300
N846        N  0.08696850  0.24956894  0.57035453    -0.80300
C847        C  0.08634098  0.85992221  0.56144094     0.79700
N848        N  0.14050062  0.89422448  0.56622847    -0.78600
C849        C  0.17209257  0.87812247  0.58131029     0.82200
N850        N  0.14931057  0.82827611  0.59219648    -0.78500
C851        C  0.09578798  0.79514895  0.59082629     0.82300
N852        N  0.06299867  0.81088832  0.57588289    -0.80300
C853        C  0.88873177  0.09868980  0.58902795     0.79700
N854        N  0.91903647  0.15299111  0.58661939    -0.78600
C855        C  0.89727921  0.18403038  0.59455344     0.82200
N856        N  0.84695181  0.16077165  0.60610935    -0.78500
C857        C  0.81775768  0.10790572  0.61044041     0.82300
N858        N  0.83833226  0.07626082  0.60182746    -0.80300
C859        C  0.89833499  0.12482459  0.93515028     0.79700
N860        N  0.92649864  0.17188259  0.91882458    -0.78600
C861        C  0.89856609  0.19037848  0.90116591     0.82200
N862        N  0.84464371  0.16219201  0.89945541    -0.78500
C863        C  0.81659108  0.11483405  0.91363896     0.82300
N864        N  0.84334535  0.09542265  0.93117906    -0.80300
C865        C  0.21775694  0.12601484  0.93893298     0.79700
N866        N  0.23981227  0.17483837  0.92452282    -0.78600
C867        C  0.28647582  0.19283695  0.90741822     0.82200
N868        N  0.30901524  0.16219090  0.90411338    -0.78500
C869        C  0.28559296  0.11255207  0.91538420     0.82300
N870        N  0.23930513  0.09392040  0.93253824    -0.80300
C871        C  0.09244984  0.89031764  0.90993686     0.79700
N872        N  0.14643803  0.91929299  0.90479560    -0.78600
C873        C  0.17388866  0.89444043  0.89605525     0.82200
N874        N  0.14767383  0.84129597  0.89240232    -0.78500
C875        C  0.09421721  0.81161400  0.89547518     0.82300
N876        N  0.06539410  0.83602504  0.90386590    -0.80300
C877        C  0.20121803  0.10070160  0.58533905     0.79700
N878        N  0.22795122  0.07391584  0.59104735    -0.78600
C879        C  0.28130911  0.10091322  0.59833267     0.82200
N880        N  0.30774068  0.15443304  0.60004717    -0.78500
C881        C  0.28217255  0.18217497  0.59604134     0.82300
N882        N  0.22791531  0.15523373  0.58911862    -0.80300
O883        O  0.06179967  0.13070305  0.56991207    -0.87000
O884        O  0.00534079  0.03020417  0.89196526    -0.87200
O885        O  0.13548326  0.12306102  0.95801808    -0.88800
O886        O  0.97710104  0.12150209  0.95548583    -0.87600
O887        O  0.89159148  0.05841822  0.96942346    -0.87200
O888        O  0.15674524  0.05973934  0.97258341    -0.88500
O889        O  0.04850141  0.11094046  0.92035843    -0.87000
O890        O  0.07942666  0.16375158  0.51686221    -0.86600
Zr891      Zr  0.04009545  0.09109901  0.97616931     2.84300
O892        O  0.95713927  0.02183613  0.95583124    -1.08600
O893        O  0.06903948  0.06070631  0.52092233    -1.09300
C894        C  0.08244511  0.16876556  0.54869516     1.06100
C895        C  0.03268715  0.08316554  0.89370810     1.06100
C896        C  0.16724427  0.10293408  0.95819082     1.09000
C897        C  0.92500470  0.10120396  0.95481805     1.06800
H898        H  0.07416976  0.03099382  0.93663991     0.32400
O899        O  0.04995981  0.02081266  0.95503729    -1.29500
H900        H  0.97627605  0.09293957  0.52691737     0.32000
O901        O  0.97960856  0.06244896  0.52095627    -1.31200
O902        O  0.92612915  0.85537711  0.93231847    -0.87000
O903        O  0.97535622  0.95751113  0.60993539    -0.88500
O904        O  0.09061714  0.94067159  0.95495048    -0.87100
O905        O  0.83231972  0.94104441  0.95507436    -0.87100
O906        O  0.88284903  0.04082329  0.54612009    -0.86800
O907        O  0.14498291  0.04489900  0.54314707    -0.86600
O908        O  0.00409748  0.86127438  0.54438997    -0.87000
O909        O  0.84787770  0.86532651  0.54818702    -0.86500
O910        O  0.08779106  0.92345086  0.52710708    -0.87500
O911        O  0.82473650  0.92671243  0.53213425    -0.86700
O912        O  0.02668523  0.91902679  0.91377713    -0.87100
O913        O  0.10603094  0.07004743  0.58377545    -0.86800
O914        O  0.94914806  0.06441240  0.58611489    -0.86500
O915        O  0.87308633  0.91728899  0.91484396    -0.86900
O916        O  0.90715048  0.82086020  0.98503895    -0.87200
O917        O  0.93413027  0.87616798  0.58221578    -0.88500
Zr918      Zr  0.96753012  0.95241745  0.93432444     2.83100
Zr919      Zr  0.01040194  0.03295740  0.56654125     2.83500
Zr920      Zr  0.07962916  0.99167071  0.50011108     2.84100
Zr921      Zr  0.89733314  0.99207139  0.50138505     2.83400
Zr922      Zr  0.94057175  0.89341982  0.52595424     2.84200
O923        O  0.92880698  0.96318946  0.54551646    -1.09100
O924        O  0.99859815  0.92356925  0.97982667    -1.08600
C925        C  0.90789068  0.81697348  0.95324634     1.06100
C926        C  0.94938306  0.90466442  0.60861773     1.08700
C927        C  0.06746884  0.91788859  0.92706155     1.06300
C928        C  0.83151939  0.91668212  0.92780876     1.06600
C929        C  0.90748738  0.06467209  0.57346665     1.06200
C930        C  0.14692263  0.07028528  0.57009758     1.05800
C931        C  0.05614255  0.88116609  0.54277355     1.06200
C932        C  0.81629639  0.88573712  0.54838922     1.05700
H933        H  0.03813541  0.95466816  0.56393022     0.32400
O934        O  0.02288094  0.96430243  0.54575368    -1.30200
H935        H  0.87423085  0.89039841  0.97436476     0.32400
O936        O  0.90836012  0.92123658  0.98030010    -1.31600
C937        C  0.76804306  0.86573898  0.56974157     0.79700
N938        N  0.74738156  0.81915867  0.58672138    -0.78600
C939        C  0.70331469  0.80454355  0.60595551     0.82200
N940        N  0.68141335  0.83587698  0.60842102    -0.78500
C941        C  0.70254680  0.88275825  0.59345705     0.82300
N942        N  0.74657107  0.89837506  0.57443433    -0.80300
C943        C  0.77763245  0.88477851  0.91195310     0.79700
N944        N  0.75170947  0.83005889  0.91011981    -0.78600
C945        C  0.69765552  0.80171862  0.90270397     0.82200
N946        N  0.67156688  0.82824840  0.89601695    -0.78500
C947        C  0.69732761  0.88167361  0.89533452     0.82300
N948        N  0.75045552  0.91014541  0.90339492    -0.80300
C949        C  0.93320681  0.86754543  0.63699738     0.79700
N950        N  0.96148099  0.84092095  0.64051832    -0.78600
C951        C  0.93583939  0.78867971  0.64974987     0.82200
N952        N  0.88319346  0.76356738  0.65572323    -0.78500
C953        C  0.85439641  0.78795389  0.65322216     0.82300
N954        N  0.87894681  0.84010871  0.64379495    -0.80300
C955        C  0.88281912  0.76354050  0.93983904     0.79700
N956        N  0.82883001  0.73680540  0.93525878    -0.78600
C957        C  0.80418722  0.68734696  0.92156014     0.82200
N958        N  0.83363723  0.66511419  0.91237940    -0.78500
C959        C  0.88762972  0.69201730  0.91591370     0.82300
N960        N  0.91283999  0.74233436  0.92894904    -0.80300
C961        C  0.70638192  0.94346414  0.63687967    -0.26800
C962        C  0.68405799  0.91872733  0.60608685    -0.14900
C963        C  0.63199569  0.90864042  0.59736614     0.35700
C964        C  0.60216827  0.91953444  0.62044861    -0.26300
C965        C  0.62209058  0.93877417  0.65283273    -0.15500
C966        C  0.67585479  0.95215559  0.66068726     0.36800
N967        N  0.69869279  0.97164418  0.69329282    -0.89800
H968        H  0.74562461  0.94970294  0.64406045     0.22200
H969        H  0.56204727  0.91062895  0.61324593     0.17900
N970        N  0.60722171  0.88485267  0.56583256    -0.88800
H971        H  0.73917334  0.98200262  0.69428896     0.35300
H972        H  0.67872768  0.94017373  0.70962582     0.40400
H973        H  0.63393942  0.88034893  0.55057801     0.40000
H974        H  0.57497492  0.84670919  0.57018808     0.34900
C975        C  0.78470113  0.09825372  0.66643348    -0.26800
C976        C  0.77200042  0.09071355  0.63239719    -0.14900
C977        C  0.72397340  0.08768309  0.62089412     0.35700
C978        C  0.69049276  0.09351990  0.64363523    -0.26300
C979        C  0.70363378  0.10197029  0.67772453    -0.15500
C980        C  0.75136628  0.10425827  0.68906338     0.36800
N981        N  0.76677216  0.11382523  0.72349992    -0.89800
H982        H  0.82274772  0.10320664  0.67526479     0.17900
H983        H  0.65301537  0.08964877  0.63464009     0.17900
N984        N  0.70859832  0.07975399  0.58632288    -0.88800
H985        H  0.80452593  0.14837924  0.72559713     0.35300
H986        H  0.77060299  0.08193272  0.73191538     0.40400
H987        H  0.73575537  0.07418538  0.57221196     0.40000
H988        H  0.67182354  0.04410696  0.58403015     0.34900
C989        C  0.70874246  0.03896086  0.85106658    -0.26800
C990        C  0.67834672  0.06453421  0.85460439    -0.14900
C991        C  0.68688415  0.09639071  0.88360112     0.35700
C992        C  0.72702886  0.10386809  0.90691416    -0.26300
C993        C  0.76067797  0.08257128  0.90143697    -0.15500
C994        C  0.75006139  0.04837609  0.87366375     0.36800
N995        N  0.78433010  0.02719685  0.86596406    -0.89800
H996        H  0.70273465  0.01391204  0.82945028     0.17900
H997        H  0.73643410  0.13177294  0.92751175     0.17900
N998        N  0.65760228  0.12405838  0.88841965    -0.88800
H999        H  0.82303831  0.05883810  0.86172154     0.35300
H1000       H  0.78637662  0.00712501  0.88671227     0.40400
H1001       H  0.66981595  0.15305246  0.87022411     0.40000
H1002       H  0.66783454  0.14453214  0.91128613     0.34900
C1003       C  0.58852752  0.90041113  0.85963632    -0.26800
C1004       C  0.59825711  0.89851950  0.82563003    -0.14900
C1005       C  0.64665962  0.90105443  0.81587186     0.35700
C1006       C  0.68297490  0.90375054  0.84024015    -0.26300
C1007       C  0.67196040  0.90327547  0.87405281    -0.15500
C1008       C  0.62503843  0.90321297  0.88392634     0.36800
N1009       N  0.61303617  0.90522892  0.91827824    -0.89800
H1010       H  0.55297509  0.90119787  0.86751649     0.17900
H1011       H  0.71829697  0.90210007  0.83280141     0.17900
N1012       N  0.65862669  0.90033881  0.78133890    -0.88800
H1013       H  0.61117520  0.93999760  0.92207316     0.35300
H1014       H  0.64435538  0.90920809  0.93365859     0.40400
H1015       H  0.63002350  0.86329467  0.77119886     0.40000
H1016       H  0.69619791  0.90337284  0.77854234     0.34900
C1017       C  0.28981958  0.06395646  0.64932449    -0.26800
C1018       C  0.30666244  0.07615524  0.61659480    -0.14900
C1019       C  0.35848358  0.08671262  0.60803674     0.35700
C1020       C  0.39344898  0.08796218  0.63285226    -0.26300
C1021       C  0.37856125  0.08063125  0.66637829    -0.15500
C1022       C  0.32528978  0.06795088  0.67444406     0.36800
N1023       N  0.30636507  0.06205025  0.70780013    -0.89800
H1024       H  0.25067375  0.05769311  0.65622229     0.17900
H1025       H  0.43316547  0.09629202  0.62578105     0.17900
N1026       N  0.37746827  0.09850340  0.57463958    -0.88800
H1027       H  0.33140628  0.09693942  0.72147434     0.35300
H1028       H  0.30624531  0.02954469  0.71864245     0.40400
H1029       H  0.34694951  0.09399154  0.55830404     0.40000
H1030       H  0.40785419  0.13851127  0.57430364     0.34900
C1031       C  0.31113534  0.92946895  0.61413638    -0.26800
C1032       C  0.30250372  0.93533121  0.64795406    -0.14900
C1033       C  0.25399205  0.93365465  0.65669519     0.35700
C1034       C  0.21626198  0.92638942  0.63180069    -0.26300
C1035       C  0.22278038  0.91545245  0.59871397    -0.15500
C1036       C  0.27171079  0.91893097  0.58959208     0.36800
N1037       N  0.28150333  0.90944528  0.55597800    -0.89800
H1038       H  0.34822193  0.93150686  0.60666114     0.17900
H1039       H  0.17792977  0.92187064  0.63900900     0.17900
N1040       N  0.24125586  0.93590369  0.69088586    -0.88800
H1041       H  0.31532803  0.94421207  0.54809403     0.35300
H1042       H  0.24977817  0.90356100  0.54026347     0.40400
H1043       H  0.23580380  0.90123924  0.70203809     0.40000
H1044       H  0.20477916  0.93545290  0.69289163     0.34900
C1045       C  0.25804844  0.93181953  0.82293889    -0.26800
C1046       C  0.29568869  0.91678840  0.83265657    -0.14900
C1047       C  0.29971383  0.90690598  0.86658957     0.35700
C1048       C  0.26446478  0.90976043  0.88930760    -0.26300
C1049       C  0.22484221  0.92128766  0.87891196    -0.15500
C1050       C  0.22301543  0.93457421  0.84568644     0.36800
N1051       N  0.18341874  0.94786113  0.83473395    -0.89800
H1052       H  0.25525794  0.94103914  0.79730555     0.17900
H1053       H  0.26422864  0.89761379  0.91465550     0.17900
N1054       N  0.33802436  0.89224091  0.87787011    -0.88800
H1055       H  0.18865283  0.95834214  0.80976674     0.35300
H1056       H  0.14547290  0.91372399  0.83610573     0.40400
H1057       H  0.32589726  0.85426759  0.86800703     0.40000
H1058       H  0.33715318  0.88879610  0.90367748     0.34900
C1059       C  0.28397077  0.06707342  0.86412876    -0.26800
C1060       C  0.30109541  0.07778081  0.89749757    -0.14900
C1061       C  0.34727490  0.07594908  0.90725888     0.35700
C1062       C  0.37580375  0.06443860  0.88333454    -0.26300
C1063       C  0.36145466  0.05849160  0.84928452    -0.15500
C1064       C  0.31471536  0.06010775  0.83974933     0.36800
N1065       N  0.29974028  0.05732858  0.80530430    -0.89800
H1066       H  0.24980439  0.07084083  0.85638642     0.17900
H1067       H  0.41103387  0.06275283  0.89121348     0.17900
N1068       N  0.36644844  0.08823040  0.94109764    -0.88800
H1069       H  0.32953504  0.09176983  0.79416807     0.35300
H1070       H  0.26393876  0.05815412  0.80269465     0.40400
H1071       H  0.37862380  0.12824621  0.94593536     0.40000
H1072       H  0.40065040  0.08469317  0.94435829     0.34900
C1073       C  0.08543190  0.77097325  0.64854373    -0.26800
C1074       C  0.07825233  0.75294664  0.61530557    -0.14900
C1075       C  0.08238023  0.70777466  0.60754851     0.35700
C1076       C  0.09364442  0.68170689  0.63296451    -0.26300
C1077       C  0.10261002  0.70080686  0.66614977    -0.15500
C1078       C  0.09850320  0.74624332  0.67384124     0.36800
N1079       N  0.10852992  0.76777419  0.70718592    -0.89800
H1080       H  0.08600113  0.80790181  0.65423949     0.17900
H1081       H  0.09519890  0.64607943  0.62672373     0.17900
N1082       N  0.07879643  0.69089949  0.57347305    -0.88800
H1083       H  0.14878506  0.78084792  0.71318976     0.35300
H1084       H  0.10395256  0.80128455  0.70865689     0.40400
H1085       H  0.03983576  0.67871746  0.56480584     0.40000
H1086       H  0.08379519  0.65766653  0.57163993     0.34900
C1087       C  0.97900260  0.71059655  0.69948199    -0.26800
C1088       C  0.95956112  0.66297925  0.68003230    -0.14900
C1089       C  0.94358810  0.66406624  0.64682827     0.35700
C1090       C  0.94395772  0.70996069  0.63515913    -0.26300
C1091       C  0.96127531  0.75607294  0.65539393    -0.15500
C1092       C  0.98059225  0.75660795  0.68751979     0.36800
N1093       N  0.99960385  0.80332931  0.70857442    -0.89800
H1094       H  0.99293930  0.71250672  0.72476875     0.17900
H1095       H  0.92699738  0.70830102  0.61074005     0.17900
N1096       N  0.92547627  0.61918282  0.62462744    -0.88800
H1097       H  0.01419433  0.79814087  0.73124153     0.35300
H1098       H  0.96682468  0.80817342  0.71410165     0.40400
H1099       H  0.95646804  0.61051253  0.62211197     0.40000
H1100       H  0.89216881  0.58656922  0.63491724     0.34900
C1101       C  0.91154952  0.62379590  0.90238732    -0.26800
C1102       C  0.91604330  0.67286303  0.89526134    -0.14900
C1103       C  0.93184785  0.69434031  0.86359464     0.35700
C1104       C  0.94180864  0.66589957  0.83913350    -0.26300
C1105       C  0.93521194  0.61554805  0.84558758    -0.15500
C1106       C  0.92171747  0.59507501  0.87801875     0.36800
N1107       N  0.91786032  0.54517505  0.88608656    -0.89800
H1108       H  0.89764848  0.60679069  0.92656716     0.17900
H1109       H  0.95269512  0.68241932  0.81458604     0.17900
N1110       N  0.93333146  0.74300278  0.85549844    -0.88800
H1111       H  0.90654412  0.53558224  0.91074603     0.35300
H1112       H  0.95634966  0.55010130  0.88419973     0.40400
H1113       H  0.90718369  0.73535451  0.83529914     0.40000
H1114       H  0.97220319  0.77052973  0.84826473     0.34900
C1115       C  0.07967725  0.71866263  0.82796122    -0.26800
C1116       C  0.08856932  0.68127164  0.84468413    -0.14900
C1117       C  0.08570959  0.68053291  0.87976542     0.35700
C1118       C  0.07788461  0.71922201  0.89687594    -0.26300
C1119       C  0.07181625  0.75808664  0.87983363    -0.15500
C1120       C  0.07182282  0.75654787  0.84491497     0.36800
N1121       N  0.07004380  0.79757406  0.82647061    -0.89800
H1122       H  0.08042732  0.72010077  0.80111457     0.17900
H1123       H  0.08100725  0.72186794  0.92372357     0.17900
N1124       N  0.09359484  0.64278282  0.89806226    -0.88800
H1125       H  0.03850006  0.77935060  0.80902218     0.35300
H1126       H  0.10586429  0.81799729  0.81341348     0.40400
H1127       H  0.06037464  0.60503615  0.89306928     0.40000
H1128       H  0.09346117  0.64968010  0.92358096     0.34900
C1129       C  0.92107270  0.31968479  0.61382984    -0.26800
C1130       C  0.93885064  0.32337171  0.64686161    -0.14900
C1131       C  0.95587157  0.28716541  0.65699917     0.35700
C1132       C  0.95521718  0.24975226  0.63452459    -0.26300
C1133       C  0.93013686  0.24101056  0.60351627    -0.15500
C1134       C  0.91458524  0.27770871  0.59251133     0.36800
N1135       N  0.88916239  0.27139546  0.56061325    -0.89800
H1136       H  0.90825451  0.34687215  0.60528767     0.17900
H1137       H  0.96576096  0.22110542  0.64370551     0.17900
N1138       N  0.97029149  0.28498366  0.69080725    -0.88800
H1139       H  0.84933630  0.26151546  0.56459903     0.35300
H1140       H  0.88798175  0.23982511  0.54708501     0.40400
H1141       H  0.00784077  0.28761593  0.69115203     0.40000
H1142       H  0.94254429  0.24751624  0.69977950     0.34900
C1143       C  0.10688910  0.32219850  0.63596647    -0.26800
C1144       C  0.09429809  0.32462930  0.60257180    -0.14900
C1145       C  0.07669277  0.35999489  0.59304597     0.35700
C1146       C  0.07273310  0.39277648  0.61741113    -0.26300
C1147       C  0.08735191  0.39157420  0.65063537    -0.15500
C1148       C  0.10539161  0.35646648  0.65995145     0.36800
N1149       N  0.12618566  0.35867549  0.69296853    -0.89800
H1150       H  0.12233862  0.29628389  0.64284032     0.17900
H1151       H  0.05785465  0.41906792  0.61044145     0.17900
N1152       N  0.06289575  0.36375495  0.55923280    -0.88800
H1153       H  0.14204310  0.33329637  0.69469985     0.35300
H1154       H  0.09448980  0.34421585  0.70953262     0.40400
H1155       H  0.06560246  0.33593831  0.54387586     0.40000
H1156       H  0.09106282  0.40158120  0.55100046     0.34900
C1157       C  0.06021410  0.33425464  0.85137167    -0.26800
C1158       C  0.05011560  0.33666189  0.81744490    -0.14900
C1159       C  0.02838726  0.28826772  0.79823097     0.35700
C1160       C  0.02110316  0.24124583  0.81238645    -0.26300
C1161       C  0.03427129  0.23954902  0.84554078    -0.15500
C1162       C  0.05296255  0.28652938  0.86548030     0.36800
N1163       N  0.06607777  0.28594243  0.89992163    -0.89800
H1164       H  0.07514000  0.36993327  0.86677095     0.17900
H1165       H  0.00903725  0.20657346  0.79637619     0.17900
N1166       N  0.01358131  0.28594835  0.76394987    -0.88800
H1167       H  0.07774190  0.32278641  0.91140340     0.35300
H1168       H  0.09943804  0.28067756  0.90127996     0.40400
H1169       H  0.97288072  0.25726480  0.76101307     0.40000
H1170       H  0.03577424  0.27325356  0.75005011     0.34900
C1171       C  0.90980761  0.25687730  0.82162466    -0.26800
C1172       C  0.92536805  0.30874635  0.83255320    -0.14900
C1173       C  0.94038146  0.32329159  0.86638323     0.35700
C1174       C  0.93825848  0.28518589  0.88850904    -0.26300
C1175       C  0.92232714  0.23343091  0.87744151    -0.15500
C1176       C  0.90820518  0.21936300  0.84366825     0.36800
N1177       N  0.88859774  0.16553304  0.83227778    -0.89800
H1178       H  0.89801141  0.24506423  0.79590701     0.17900
H1179       H  0.94623770  0.29501013  0.91475291     0.17900
N1180       N  0.95748728  0.37647958  0.87825691    -0.88800
H1181       H  0.91223206  0.16600932  0.81260930     0.35300
H1182       H  0.84932936  0.15033085  0.82309586     0.40400
H1183       H  0.99380885  0.40212637  0.86690084     0.40000
H1184       H  0.96578710  0.38005321  0.90377366     0.34900
C1185       C  0.67533424  0.74504866  0.85440173    -0.26800
C1186       C  0.66985753  0.74694398  0.88866519    -0.14900
C1187       C  0.62206868  0.70702647  0.90302345     0.35700
C1188       C  0.58022041  0.66738926  0.88254589    -0.26300
C1189       C  0.58334994  0.66941682  0.84764155    -0.15500
C1190       C  0.63237484  0.70995552  0.83381714     0.36800
N1191       N  0.63950348  0.71990984  0.79898657    -0.89800
H1192       H  0.71071627  0.77684489  0.84289596     0.17900
H1193       H  0.54387132  0.63686785  0.89381776     0.17900
N1194       N  0.61480173  0.70940015  0.93808702    -0.88800
H1195       H  0.63623858  0.68678365  0.78645285     0.35300
H1196       H  0.61056848  0.72867325  0.79014080     0.40400
H1197       H  0.64386177  0.70379356  0.95019030     0.40000
H1198       H  0.57729248  0.67803735  0.94490294     0.34900
C1199       C  0.71176769  0.61749509  0.91064688    -0.26800
C1200       C  0.75401514  0.66805810  0.90345921    -0.14900
C1201       C  0.75597621  0.69040131  0.87228014     0.35700
C1202       C  0.71842402  0.65972663  0.84783485    -0.26300
C1203       C  0.67823476  0.60716935  0.85389001    -0.15500
C1204       C  0.67351155  0.58683508  0.88630567     0.36800
N1205       N  0.63132422  0.53517030  0.89528434    -0.89800
H1206       H  0.71089950  0.60016206  0.93446195     0.17900
H1207       H  0.72194462  0.67675109  0.82356756     0.17900
N1208       N  0.79809183  0.74271379  0.86397953    -0.88800
H1209       H  0.59426480  0.53194635  0.88944972     0.35300
H1210       H  0.63569494  0.50646529  0.88203012     0.40400
H1211       H  0.83512862  0.74432956  0.86613135     0.40000
H1212       H  0.79763312  0.77013369  0.88086438     0.34900
C1213       C  0.78752602  0.75285608  0.69615363    -0.26800
C1214       C  0.79751585  0.75445278  0.66231784    -0.14900
C1215       C  0.76316697  0.70924235  0.64222446     0.35700
C1216       C  0.71997687  0.66350560  0.65651328    -0.26300
C1217       C  0.71128735  0.66095290  0.69089397    -0.15500
C1218       C  0.74647401  0.70726840  0.71072985     0.36800
N1219       N  0.74445661  0.70893629  0.74621692    -0.89800
H1220       H  0.81548162  0.78576545  0.71216597     0.17900
H1221       H  0.69354011  0.62956180  0.64076727     0.17900
N1222       N  0.77457362  0.70886893  0.60761842    -0.88800
H1223       H  0.74443394  0.67565849  0.75587301     0.35300
H1224       H  0.71023043  0.71009699  0.75321099     0.40400
H1225       H  0.77030045  0.73881508  0.59639660     0.40000
H1226       H  0.74624069  0.67286167  0.59618283     0.34900
C1227       C  0.64517181  0.74206230  0.68529299    -0.26800
C1228       C  0.60318304  0.69256391  0.67388799    -0.14900
C1229       C  0.60428205  0.67576683  0.64084651     0.35700
C1230       C  0.64366633  0.71073517  0.61907966    -0.26300
C1231       C  0.68277710  0.76173236  0.62991179    -0.15500
C1232       C  0.68481230  0.77681568  0.66365732     0.36800
N1233       N  0.72428902  0.82974187  0.67485305    -0.89800
H1234       H  0.64629404  0.75421942  0.71097287     0.17900
H1235       H  0.64141298  0.69930089  0.59314156     0.17900
N1236       N  0.56606736  0.62294848  0.62935325    -0.88800
H1237       H  0.71991352  0.83518933  0.70009021     0.35300
H1238       H  0.76226647  0.83372535  0.67224126     0.40400
H1239       H  0.58730230  0.60428294  0.62161591     0.40000
H1240       H  0.54543090  0.62588439  0.60873962     0.34900
C1241       C  0.32806854  0.39270740  0.61403784    -0.26800
C1242       C  0.31504005  0.37540989  0.64683252    -0.14900
C1243       C  0.26687051  0.32785884  0.65296544     0.35700
C1244       C  0.23332220  0.29802846  0.62648901    -0.26300
C1245       C  0.24419600  0.31717140  0.59411990    -0.15500
C1246       C  0.29231089  0.36469958  0.58775323     0.36800
N1247       N  0.30473560  0.38602077  0.55512322    -0.89800
H1248       H  0.36539571  0.42887272  0.60892977     0.17900
H1249       H  0.19510145  0.26292561  0.63185668     0.17900
N1250       N  0.24998292  0.31154536  0.68616919    -0.88800
H1251       H  0.30465267  0.35711585  0.53930704     0.35300
H1252       H  0.27440439  0.39331966  0.54705685     0.40400
H1253       H  0.21308908  0.30978089  0.68941776     0.40000
H1254       H  0.24365061  0.27310380  0.68883691     0.34900
C1255       C  0.34871850  0.27893506  0.66500380    -0.26800
C1256       C  0.39716496  0.31763573  0.65060491    -0.14900
C1257       C  0.40078021  0.31701745  0.61577218     0.35700
C1258       C  0.35811647  0.27595799  0.59659604    -0.26300
C1259       C  0.31122132  0.23589646  0.61157836    -0.15500
C1260       C  0.30659624  0.23874078  0.64619901     0.36800
N1261       N  0.26127323  0.19825616  0.66340658    -0.89800
H1262       H  0.34351316  0.27852290  0.69161227     0.17900
H1263       H  0.36342875  0.27301291  0.57022611     0.17900
N1264       N  0.44844782  0.35603607  0.59991226    -0.88800
H1265       H  0.25962571  0.16170892  0.65986315     0.35300
H1266       H  0.22625456  0.19525806  0.65322216     0.40400
H1267       H  0.46442492  0.33610696  0.58665890     0.40000
H1268       H  0.43733628  0.37585092  0.58291195     0.34900
C1269       C  0.38341313  0.31894179  0.86791467    -0.26800
C1270       C  0.37982671  0.29986075  0.83506331    -0.14900
C1271       C  0.33709584  0.24879498  0.82610470     0.35700
C1272       C  0.29989405  0.21792156  0.84999820    -0.26300
C1273       C  0.30602818  0.23539379  0.88333243    -0.15500
C1274       C  0.34754146  0.28677511  0.89226577     0.36800
N1275       N  0.35405517  0.30540233  0.92614599    -0.89800
H1276       H  0.41491134  0.35885098  0.87486385     0.17900
H1277       H  0.26917044  0.17746929  0.84324757     0.17900
N1278       N  0.33294213  0.22672745  0.79344773    -0.88800
H1279       H  0.38608237  0.34457507  0.92848046     0.35300
H1280       H  0.36451538  0.28205597  0.94043369     0.40400
H1281       H  0.29488195  0.21544971  0.78361109     0.40000
H1282       H  0.33538000  0.19212131  0.79564445     0.34900
C1283       C  0.20134447  0.23084914  0.80789892    -0.26800
C1284       C  0.19064282  0.22927118  0.84168026    -0.14900
C1285       C  0.22427751  0.27478385  0.86172413     0.35700
C1286       C  0.26770391  0.32035451  0.84780180    -0.26300
C1287       C  0.27688882  0.32276131  0.81354159    -0.15500
C1288       C  0.24186993  0.27728312  0.79350175     0.36800
N1289       N  0.24461084  0.27882176  0.75804784    -0.89800
H1290       H  0.17354291  0.19814100  0.79171580     0.17900
H1291       H  0.29357760  0.35415642  0.86381610     0.17900
N1292       N  0.21208147  0.27588638  0.89600677    -0.88800
H1293       H  0.20750031  0.27179363  0.74868834     0.35300
H1294       H  0.25031334  0.24783414  0.74958654     0.40400
H1295       H  0.20519269  0.30766248  0.89985447     0.40000
H1296       H  0.24583336  0.28352992  0.91027509     0.34900
loop_ 
_geom_bond_atom_site_label_1 
_geom_bond_atom_site_label_2 
_geom_bond_distance 
_geom_bond_site_symmetry_2 
_ccdc_geom_bond_type 
O1          Zr13   2.433       .  S
O1            C3   1.284       .  A
O2          Zr39   2.405       .  S
O2            C3   1.280       .  A
C3          C622   1.478       .  S
O4          Zr16   2.521       .  S
O4            C6   1.293       .  A
O5          Zr40   2.387       .  S
O5            C6   1.265       .  A
C6          C541   1.514       .  S
O7          Zr16   2.519       .  S
O7            C9   1.302       .  A
O8          Zr39   2.368       .  S
O8            C9   1.276       .  A
C9          C639   1.503       .  S
O10         Zr13   2.442       .  S
O10          C12   1.285       .  A
O11         Zr40   2.401       .  S
O11          C12   1.282       .  A
C12         C555   1.474       .  S
Zr13         O14   2.436       .  S
Zr13         O15   2.437       .  S
Zr13         O19   2.273       .  S
Zr13         O20   2.362       .  S
Zr13         O43   2.382       .  S
Zr13         O45   2.372       .  S
O14          H57   0.990       .  S
O15          H56   0.990       .  S
O15          H60   0.990       .  S
Zr16         O17   2.437       .  S
Zr16         O18   2.434       .  S
Zr16         O19   2.277       .  S
Zr16         O46   2.303       .  S
Zr16         O20   2.391       .  S
Zr16         O44   2.396       .  S
O17          H58   0.990       .  S
O17          H61   0.990       .  S
O18          H51   0.990       .  S
O19         Zr39   2.244       .  S
O20         Zr40   2.396       .  S
O20          H47   0.960       .  S
O21         Zr33   2.556       .  S
O21          C23   1.309       .  A
O22         Zr40   2.358       .  S
O22          C23   1.273       .  A
C23         C569   1.510       .  S
O24         Zr36   2.438       .  S
O24          C26   1.285       .  A
O25         Zr39   2.388       .  S
O25          C26   1.278       .  A
C26         C594   1.472       .  S
O27         Zr36   2.481       .  S
O27          C29   1.294       .  A
O28         Zr40   2.409       .  S
O28          C29   1.283       .  A
C29         C580   1.488       .  S
O30         Zr33   2.513       .  S
O30          C32   1.296       .  A
O31         Zr39   2.375       .  S
O31          C32   1.268       .  A
C32         C608   1.502       .  S
Zr33         O34   2.436       .  S
Zr33         O35   2.434       .  S
Zr33         O42   2.296       .  S
Zr33         O41   2.341       .  S
Zr33         O45   2.403       .  S
Zr33         O43   2.394       .  S
O34          H54   0.990       .  S
O34          H59   0.990       .  S
O35          H55   0.990       .  S
Zr36         O37   2.436       .  S
Zr36         O38   2.435       .  S
Zr36         O42   2.280       .  S
Zr36         O46   2.276       .  S
Zr36         O41   2.361       .  S
Zr36         O44   2.387       .  S
O37          H53   0.990       .  S
O38          H52   0.990       .  S
O38          H62   0.990       .  S
Zr39         O42   2.264       .  S
Zr39         O44   2.391       .  S
Zr39         O45   2.391       .  S
Zr40         O46   2.277       .  S
Zr40         O41   2.384       .  S
Zr40         O43   2.386       .  S
O41          H49   0.960       .  S
O44          H48   0.965       .  S
O45          H50   0.965       .  S
O63         Zr75   2.529       .  S
O63          C65   1.301       .  A
O64        Zr101   2.372   1_455  S
O64          C65   1.270       .  A
C65         C510   1.512       .  S
O66         Zr78   2.475       .  S
O66          C68   1.293       .  A
O67        Zr102   2.402   1_655  S
O67          C68   1.283       .  A
C68         C457   1.484       .  S
O69         Zr78   2.448       .  S
O69          C71   1.287       .  A
O70        Zr101   2.414       .  S
O70          C71   1.282       .  A
C71         C524   1.482       .  S
O72         Zr75   2.512       .  S
O72          C74   1.292       .  A
O73        Zr102   2.396       .  S
O73          C74   1.273       .  A
C74         C468   1.509       .  S
Zr75         O76   2.435       .  S
Zr75         O77   2.434       .  S
Zr75         O81   2.280   1_455  S
Zr75         O82   2.385       .  S
Zr75        O105   2.417       .  S
Zr75        O107   2.395       .  S
O76         H119   0.990       .  S
O77         H118   0.990       .  S
O77         H122   0.990       .  S
Zr78         O79   2.439       .  S
Zr78         O80   2.436       .  S
Zr78         O81   2.279       .  S
Zr78         O82   2.355   1_655  S
Zr78        O106   2.382       .  S
Zr78        O108   2.378       .  S
O79         H120   0.990       .  S
O79         H123   0.990       .  S
O80         H113   0.990       .  S
O81        Zr101   2.245       .  S
O82        Zr102   2.395       .  S
O82         H109   0.961   1_455  S
O83         Zr95   2.487       .  S
O83          C85   1.296       .  A
O84        Zr102   2.424       .  S
O84          C85   1.286       .  A
C85         C429   1.495       .  S
O86         Zr98   2.518       .  S
O86          C88   1.299       .  A
O87        Zr101   2.378       .  S
O87          C88   1.271       .  A
C88         C482   1.504       .  S
O89         Zr98   2.555       .  S
O89          C91   1.308       .  A
O90        Zr102   2.363   1_655  S
O90          C91   1.278       .  A
C91         C440   1.518       .  S
O92         Zr95   2.446       .  S
O92          C94   1.286       .  A
O93        Zr101   2.386   1_455  S
O93          C94   1.276       .  A
C94         C499   1.465       .  S
Zr95         O96   2.440       .  S
Zr95         O97   2.435       .  S
Zr95        O104   2.284       .  S
Zr95        O103   2.360       .  S
Zr95        O107   2.390       .  S
Zr95        O105   2.382       .  S
O96         H116   0.990       .  S
O96         H121   0.990       .  S
O97         H117   0.990       .  S
Zr98         O99   2.435       .  S
Zr98        O100   2.433       .  S
Zr98        O104   2.290   1_655  S
Zr98        O103   2.338   1_655  S
Zr98        O108   2.395       .  S
Zr98        O106   2.396       .  S
O99         H115   0.990       .  S
O100        H114   0.990       .  S
O100        H124   0.990       .  S
Zr101       O104   2.257   1_655  S
Zr101       O106   2.388       .  S
Zr101       O107   2.387   1_655  S
Zr102       O103   2.383       .  S
Zr102       O105   2.388       .  S
Zr102       O108   2.392   1_455  S
O103        H111   0.958       .  S
O106        H110   0.966       .  S
O107        H112   0.966       .  S
O125       Zr137   2.456       .  S
O125        C127   1.288       .  A
O126       Zr163   2.385       .  S
O126        C127   1.276       .  A
C127        C398   1.487       .  S
O128       Zr140   2.460       .  S
O128        C130   1.290       .  A
O129       Zr164   2.442       .  S
O129        C130   1.291       .  A
C130        C342   1.501       .  S
O131       Zr140   2.452       .  S
O131        C133   1.289       .  A
O132       Zr163   2.430   1_545  S
O132        C133   1.286       .  A
C133        C415   1.500       .  S
O134       Zr137   2.470       .  S
O134        C136   1.291       .  A
O135       Zr164   2.386   1_565  S
O135        C136   1.278       .  A
C136        C356   1.475       .  S
Zr137       O138   2.436       .  S
Zr137       O139   2.435       .  S
Zr137       O143   2.279       .  S
Zr137       O144   2.371       .  S
Zr137       O167   2.385       .  S
Zr137       O169   2.387       .  S
O138        H181   0.990       .  S
O139        H180   0.990       .  S
O139        H184   0.990       .  S
Zr140       O141   2.438       .  S
Zr140       O142   2.434       .  S
Zr140       O143   2.273   1_545  S
Zr140       O144   2.360   1_545  S
Zr140       O168   2.377       .  S
Zr140       O170   2.388       .  S
O141        H182   0.990       .  S
O141        H185   0.990       .  S
O142        H175   0.990       .  S
O143       Zr163   2.248       .  S
O144       Zr164   2.387   1_565  S
O144        H171   0.961       .  S
O145       Zr157   2.495       .  S
O145        C147   1.297       .  A
O146       Zr164   2.424   1_565  S
O146        C147   1.286       .  A
C147        C317   1.510       .  S
O148       Zr160   2.457       .  S
O148        C150   1.288       .  A
O149       Zr163   2.378   1_545  S
O149        C150   1.269       .  A
C150        C373   1.484       .  S
O151       Zr160   2.480       .  S
O151        C153   1.294       .  A
O152       Zr164   2.392       .  S
O152        C153   1.280       .  A
C153        C331   1.480       .  S
O154       Zr157   2.466       .  S
O154        C156   1.292       .  A
O155       Zr163   2.415       .  S
O155        C156   1.284       .  A
C156        C384   1.499       .  S
Zr157       O158   2.439       .  S
Zr157       O159   2.434       .  S
Zr157       O166   2.282   1_565  S
Zr157       O165   2.357   1_565  S
Zr157       O169   2.388       .  S
Zr157       O167   2.386       .  S
O158        H178   0.990       .  S
O158        H183   0.991       .  S
O159        H179   0.990       .  S
Zr160       O161   2.437       .  S
Zr160       O162   2.434       .  S
Zr160       O166   2.285       .  S
Zr160       O165   2.367       .  S
Zr160       O170   2.387       .  S
Zr160       O168   2.391       .  S
O161        H177   0.990       .  S
O162        H176   0.990       .  S
O162        H186   0.990       .  S
Zr163       O166   2.262   1_565  S
Zr163       O168   2.390   1_565  S
Zr163       O169   2.394       .  S
Zr164       O165   2.391       .  S
Zr164       O167   2.396   1_545  S
Zr164       O170   2.393       .  S
O165        H173   0.960       .  S
O168        H172   0.966       .  S
O169        H174   0.966       .  S
C187        C247   1.495       .  S
C187        N188   1.383       .  A
C187        N192   1.385       .  A
N188        C189   1.371       .  A
C189        C636   1.469       .  S
C189        N190   1.330       .  A
N190        C191   1.330       .  A
C191        C513   1.472       .  S
C191        N192   1.373       .  A
C193        C246   1.453       .  S
C193        N194   1.358       .  A
C193        N198   1.361       .  A
N194        C195   1.356       .  A
C195        C597   1.456       .  S
C195        N196   1.348       .  A
N196        C197   1.349       .  A
C197        C496   1.461       .  S
C197        N198   1.359       .  A
C199        C283   1.496       .  S
C199        N200   1.372       .  A
C199        N204   1.373       .  A
N200        C201   1.355       .  A
C201        C387   1.473       .  S
C201        N202   1.338       .  A
N202        C203   1.345       .  A
C203        C426   1.469       .  S
C203        N204   1.375       .  A
C205        C281   1.479       .  S
C205        N206   1.370       .  A
C205        N210   1.366       .  A
N206        C207   1.365       .  A
C207        C485   1.473       .  S
C207        N208   1.345       .  A
N208        C209   1.345       .  A
C209        C328   1.465       .  S
C209        N210   1.363       .  A
C211        C249   1.492       .  S
C211        N212   1.370       .  A
C211        N216   1.376       .  A
N212        C213   1.368       .  A
C213        C527   1.458       .  S
C213        N214   1.341       .  A
N214        C215   1.335       .  A
C215        C345   1.472       .  S
C215        N216   1.360       .  A
C217        C248   1.484       .  S
C217        N218   1.366       .  A
C217        N222   1.375       .  A
N218        C219   1.365       .  A
C219        C625   1.455       .  S
C219        N220   1.344       .  A
N220        C221   1.336       .  A
C221        C412   1.476       .  S
C221        N222   1.359       .  A
C223        C279   1.478       .  S
C223        N224   1.362       .  A
C223        N228   1.378       .  A
N224        C225   1.353       .  A
C225        C401   1.456       .  S
C225        N226   1.341       .  A
N226        C227   1.343       .  A
C227        C471   1.480       .  S
C227        N228   1.373       .  A
C229        C282   1.475       .  S
C229        N230   1.360       .  A
C229        N234   1.373       .  A
N230        C231   1.354       .  A
C231        C370   1.456       .  S
C231        N232   1.344       .  A
N232        C233   1.345       .  A
C233        C611   1.475       .  S
C233        N234   1.372       .  A
O235       Zr271   2.467       .  S
O235        C246   1.298       .  A
O236       Zr270   2.618   1_445  S
O236        C247   1.329       .  A
O237       Zr243   2.526       .  S
O237        C248   1.306       .  A
O238       Zr243   2.527   1_655  S
O238        C249   1.307       .  A
O239       Zr921   2.384   1_545  S
O239        C249   1.281       .  A
O240       Zr920   2.380   1_545  S
O240        C248   1.281       .  A
O241       Zr243   2.310       .  S
O241        C247   1.268       .  A
O242       Zr891   2.413   1_554  S
O242        C246   1.287       .  A
Zr243       O890   2.409       .  S
Zr243       O244   2.343   1_455  S
Zr243       O251   2.345       .  S
Zr243       O893   2.329       .  S
Zr243       O901   2.334   1_455  S
O244       Zr270   2.336   1_545  S
O244       Zr921   2.330   1_545  S
O245       Zr271   2.372       .  S
O245       Zr272   2.322   1_544  S
O245       Zr891   2.330   1_554  S
H250        O251   0.964       .  S
O251       Zr270   2.330   1_445  S
O251       Zr920   2.335   1_545  S
H252        O253   0.964       .  S
O253       Zr271   2.381   1_655  S
O253       Zr273   2.338   1_544  S
O253       Zr891   2.338   1_654  S
O254       Zr270   2.447       .  S
O254        C277   1.295       .  A
O255       Zr271   2.620   1_665  S
O255        C278   1.330       .  A
O256       Zr920   2.435       .  S
O256        C279   1.291       .  A
O257       Zr921   2.450       .  S
O257        C280   1.294       .  A
O258       Zr273   2.444   1_544  S
O258        C281   1.292       .  A
O259       Zr272   2.422   1_544  S
O259        C282   1.288       .  A
O260       Zr274   2.537   1_455  S
O260        C283   1.307       .  A
O261       Zr274   2.539       .  S
O261        C284   1.309       .  A
O262       Zr272   2.387   1_554  S
O262        C283   1.282       .  A
O263       Zr273   2.381   1_554  S
O263        C284   1.281       .  A
O264       Zr270   2.476   1_455  S
O264        C279   1.298       .  A
O265       Zr271   2.487       .  S
O265        C282   1.301       .  A
O266       Zr271   2.487   1_655  S
O266        C281   1.301       .  A
O267       Zr270   2.482       .  S
O267        C280   1.299       .  A
O268       Zr922   2.412       .  S
O268        C277   1.288       .  A
O269       Zr274   2.315       .  S
O269        C278   1.269       .  A
Zr270       O276   2.370       .  S
Zr270       O288   2.385       .  S
Zr271       O275   2.338   1_445  S
Zr271       O286   2.340   1_545  S
Zr272       O888   2.383   1_565  S
Zr272       O904   2.438       .  S
Zr272       O286   2.341   1_556  S
Zr272       O899   2.337   1_565  S
Zr272       O924   2.308   1_455  S
Zr273       O887   2.386   1_565  S
Zr273       O905   2.444       .  S
Zr273       O275   2.335   1_556  S
Zr273       O892   2.332   1_565  S
Zr273       O936   2.334       .  S
Zr274       O916   2.402   1_554  S
Zr274       O275   2.339       .  S
Zr274       O286   2.343   1_655  S
Zr274       O924   2.339   1_554  S
Zr274       O936   2.344   1_554  S
O276       Zr920   2.308   1_655  S
O276       Zr922   2.336       .  S
C277        C307   1.443       .  S
C278        C301   1.499       .  S
C280        C295   1.482       .  S
C284        C289   1.497       .  S
H285        O286   0.964       .  S
H287        O288   0.964       .  S
O288       Zr921   2.335       .  S
O288       Zr922   2.345       .  S
C289        N290   1.372       .  A
C289        N294   1.378       .  A
N290        C291   1.371       .  A
C291        C583   1.465       .  S
C291        N292   1.343       .  A
N292        C293   1.336       .  A
C293        C314   1.477       .  S
C293        N294   1.359       .  A
C295        N296   1.375       .  A
C295        N300   1.361       .  A
N296        C297   1.372       .  A
C297        C538   1.477       .  S
C297        N298   1.343       .  A
N298        C299   1.341       .  A
C299        C359   1.457       .  S
C299        N300   1.356       .  A
C301        N302   1.383       .  A
C301        N306   1.384       .  A
N302        C303   1.372       .  A
C303        C443   1.478       .  S
C303        N304   1.334       .  A
N304        C305   1.335       .  A
C305        C566   1.477       .  S
C305        N306   1.374       .  A
C307        N308   1.353       .  A
C307        N312   1.362       .  A
N308        C309   1.349       .  A
C309        C552   1.447       .  S
C309        N310   1.347       .  A
N310        C311   1.347       .  A
C311        C454   1.463       .  S
C311        N312   1.360       .  A
C313        C314   1.401       .  A
C313        C318   1.409       .  A
C313        H320   1.085       .  S
C314        C315   1.412       .  A
C315        C316   1.409       .  A
C315        N322   1.437       .  S
C316        C317   1.411       .  A
C316        H321   1.083       .  S
C317        C318   1.425       .  A
C318        N319   1.438       .  S
N319        H323   1.046       .  S
N319        H324   1.046       .  S
N322        H325   1.045       .  S
N322        H326   1.045       .  S
C327        C328   1.403       .  A
C327        C332   1.400       .  A
C327        H334   1.085       .  S
C328        C329   1.412       .  A
C329        C330   1.405       .  A
C329        N336   1.438       .  S
C330        C331   1.408       .  A
C330        H335   1.084       .  S
C331        C332   1.409       .  A
C332        N333   1.433       .  S
N333        H337   1.046       .  S
N333        H338   1.046       .  S
N336        H339   1.044       .  S
N336        H340   1.046       .  S
C341        C342   1.409       .  A
C341        C346   1.401       .  A
C341        H348   1.083       .  S
C342        C343   1.421       .  A
C343        C344   1.410       .  A
C343        N350   1.438       .  S
C344        C345   1.403       .  A
C344        H349   1.084       .  S
C345        C346   1.411       .  A
C346        N347   1.432       .  S
N347        H351   1.045       .  S
N347        H352   1.043       .  S
N350        H353   1.046       .  S
N350        H354   1.046       .  S
C355        C356   1.408       .  A
C355        C360   1.403       .  A
C355        H362   1.084       .  S
C356        C357   1.411       .  A
C357        C358   1.398       .  A
C357        N364   1.439       .  S
C358        C359   1.402       .  A
C358        H363   1.085       .  S
C359        C360   1.409       .  A
C360        N361   1.437       .  S
N361        H365   1.046       .  S
N361        H366   1.045       .  S
N364        H367   1.046       .  S
N364        H368   1.046       .  S
C369        C370   1.397       .  A
C369        C374   1.392       .  A
C369        H376   1.085       .  S
C370        C371   1.409       .  A
C371        C372   1.398       .  A
C371        N378   1.437       .  S
C372        C373   1.407       .  A
C372        H377   1.083       .  S
C373        C374   1.426       .  A
C374        N375   1.435       .  S
N375        H379   1.045       .  S
N375        H380   1.044       .  S
N378        H381   1.045       .  S
N378        H382   1.046       .  S
C383        C384   1.411       .  A
C383        C388   1.409       .  A
C383        H390   1.083       .  S
C384        C385   1.419       .  A
C385        C386   1.403       .  A
C385        N392   1.439       .  S
C386        C387   1.402       .  A
C386        H391   1.085       .  S
C387        C388   1.411       .  A
C388        N389   1.437       .  S
N389        H393   1.046       .  S
N389        H394   1.045       .  S
N392        H395   1.046       .  S
N392        H396   1.046       .  S
C397        C398   1.410       .  A
C397        C402   1.400       .  A
C397        H404   1.083       .  S
C398        C399   1.416       .  A
C399        C400   1.403       .  A
C399        N406   1.437       .  S
C400        C401   1.399       .  A
C400        H405   1.084       .  S
C401        C402   1.406       .  A
C402        N403   1.440       .  S
N403        H407   1.046       .  S
N403        H408   1.045       .  S
N406        H409   1.045       .  S
N406        H410   1.046       .  S
C411        C412   1.405       .  A
C411        C416   1.405       .  A
C411        H418   1.085       .  S
C412        C413   1.406       .  A
C413        C414   1.413       .  A
C413        N420   1.437       .  S
C414        C415   1.414       .  A
C414        H419   1.083       .  S
C415        C416   1.417       .  A
C416        N417   1.439       .  S
N417        H421   1.046       .  S
N417        H422   1.043       .  S
N420        H423   1.045       .  S
N420        H424   1.046       .  S
C425        C426   1.406       .  A
C425        C430   1.408       .  A
C425        H432   1.085       .  S
C426        C427   1.406       .  A
C427        C428   1.411       .  A
C427        N434   1.437       .  S
C428        C429   1.412       .  A
C428        H433   1.083       .  S
C429        C430   1.412       .  A
C430        N431   1.438       .  S
N431        H435   1.045       .  S
N431        H436   1.046       .  S
N434        H437   1.046       .  S
N434        H438   1.046       .  S
C439        C440   1.421       .  A
C439        C444   1.406       .  A
C439        H446   1.082       .  S
C440        C441   1.418       .  A
C441        C442   1.415       .  A
C441        N448   1.431       .  S
C442        C443   1.414       .  A
C442        H447   1.084       .  S
C443        C444   1.402       .  A
C444        N445   1.440       .  S
N445        H449   1.046   1_655  S
N445        H450   1.045       .  S
N448        H451   1.045       .  S
N448        H452   1.045       .  S
C453        C454   1.400       .  A
C453        C458   1.405       .  A
C453        H460   1.084       .  S
C454        C455   1.408       .  A
C455        C456   1.402       .  A
C455        N462   1.439       .  S
C456        C457   1.406       .  A
C456        H461   1.083       .  S
C457        C458   1.417       .  A
C458        N459   1.437       .  S
N459        H463   1.046       .  S
N459        H464   1.046       .  S
N462        H465   1.043       .  S
N462        H466   1.044       .  S
C467        C468   1.410       .  A
C467        C472   1.396       .  A
C467        H474   1.083       .  S
C468        C469   1.420       .  A
C469        C470   1.425       .  A
C469        N476   1.436       .  S
C470        C471   1.411       .  A
C470        H475   1.083       .  S
C471        C472   1.406       .  A
C472        N473   1.434       .  S
N473        H477   1.045       .  S
N473        H478   1.046       .  S
N476        H479   1.045       .  S
N476        H480   1.046       .  S
C481        C482   1.406       .  A
C481        C486   1.414       .  A
C481        H488   1.083       .  S
C482        C483   1.426       .  A
C483        C484   1.397       .  A
C483        N490   1.432       .  S
C484        C485   1.392       .  A
C484        H489   1.086       .  S
C485        C486   1.419       .  A
C486        N487   1.436       .  S
N487        H491   1.045       .  S
N487        H492   1.045       .  S
N490        H493   1.043   1_655  S
N490        H494   1.046       .  S
C495        C496   1.404       .  A
C495        C500   1.395       .  A
C495        H502   1.085       .  S
C496        C497   1.410       .  A
C497        C498   1.402       .  A
C497        N504   1.436       .  S
C498        C499   1.405       .  A
C498        H503   1.084       .  S
C499        C500   1.409       .  A
C500        N501   1.440       .  S
N501        H505   1.046       .  S
N501        H506   1.042       .  S
N504        H507   1.044       .  S
N504        H508   1.045       .  S
C509        C510   1.406       .  A
C509        C514   1.421       .  A
C509        H516   1.083       .  S
C510        C511   1.429       .  A
C511        C512   1.401       .  A
C511        N518   1.432       .  S
C512        C513   1.393       .  A
C512        H517   1.085       .  S
C513        C514   1.420       .  A
C514        N515   1.438       .  S
N515        H519   1.045       .  S
N515        H520   1.045       .  S
N518        H521   1.045   1_455  S
N518        H522   1.046       .  S
C523        C524   1.403       .  A
C523        C528   1.400       .  A
C523        H530   1.084       .  S
C524        C525   1.419       .  A
C525        C526   1.406       .  A
C525        N532   1.437       .  S
C526        C527   1.396       .  A
C526        H531   1.084       .  S
C527        C528   1.411       .  A
C528        N529   1.435       .  S
N529        H533   1.044       .  S
N529        H534   1.046       .  S
N532        H535   1.044       .  S
N532        H536   1.045       .  S
C537        C538   1.396       .  A
C537        C542   1.396       .  A
C537        H544   1.086       .  S
C538        C539   1.412       .  A
C539        C540   1.422       .  A
C539        N546   1.436       .  S
C540        C541   1.412       .  A
C540        H545   1.083       .  S
C541        C542   1.432       .  A
C542        N543   1.432       .  S
N543        H547   1.042       .  S
N543        H548   1.045       .  S
N546        H549   1.046       .  S
N546        H550   1.045       .  S
C551        C552   1.395       .  A
C551        C556   1.394       .  A
C551        H558   1.084       .  S
C552        C553   1.410       .  A
C553        C554   1.387       .  A
C553        N560   1.434       .  S
C554        C555   1.403       .  A
C554        H559   1.084       .  S
C555        C556   1.421       .  A
C556        N557   1.431       .  S
N557        H561   1.045       .  S
N557        H562   1.044       .  S
N560        H563   1.043       .  S
N560        H564   1.044       .  S
C565        C566   1.395       .  A
C565        C570   1.399       .  A
C565        H572   1.085       .  S
C566        C567   1.417       .  A
C567        C568   1.419       .  A
C567        N574   1.437       .  S
C568        C569   1.407       .  A
C568        H573   1.083       .  S
C569        C570   1.434       .  A
C570        N571   1.433       .  S
N571        H575   1.046       .  S
N571        H576   1.042       .  S
N574        H577   1.045       .  S
N574        H578   1.045       .  S
C579        C580   1.404       .  A
C579        C584   1.404       .  A
C579        H586   1.084       .  S
C580        C581   1.418       .  A
C581        C582   1.406       .  A
C581        N588   1.432       .  S
C582        C583   1.397       .  A
C582        H587   1.084       .  S
C583        C584   1.414       .  A
C584        N585   1.440       .  S
N585        H589   1.046       .  S
N585        H590   1.044       .  S
N588        H591   1.046       .  S
N588        H592   1.046       .  S
C593        C594   1.406       .  A
C593        C598   1.399       .  A
C593        H600   1.084       .  S
C594        C595   1.408       .  A
C595        C596   1.392       .  A
C595        N602   1.432       .  S
C596        C597   1.400       .  A
C596        H601   1.085       .  S
C597        C598   1.409       .  A
C598        N599   1.431       .  S
N599        H603   1.045       .  S
N599        H604   1.045       .  S
N602        H605   1.045       .  S
N602        H606   1.043       .  S
C607        C608   1.414       .  A
C607        C612   1.392       .  A
C607        H614   1.083       .  S
C608        C609   1.410       .  A
C609        C610   1.419       .  A
C609        N616   1.430       .  S
C610        C611   1.411       .  A
C610        H615   1.083       .  S
C611        C612   1.408       .  A
C612        N613   1.435       .  S
N613        H617   1.045       .  S
N613        H618   1.045       .  S
N616        H619   1.045       .  S
N616        H620   1.046       .  S
C621        C622   1.410       .  A
C621        C626   1.402       .  A
C621        H628   1.083       .  S
C622        C623   1.409       .  A
C623        C624   1.397       .  A
C623        N630   1.433       .  S
C624        C625   1.407       .  A
C624        H629   1.085       .  S
C625        C626   1.401       .  A
C626        N627   1.437       .  S
N627        H631   1.046       .  S
N627        H632   1.045       .  S
N630        H633   1.044       .  S
N630        H634   1.046       .  S
C635        C636   1.396       .  A
C635        C640   1.403       .  A
C635        H642   1.085       .  S
C636        C637   1.417       .  A
C637        C638   1.414       .  A
C637        N644   1.433       .  S
C638        C639   1.404       .  A
C638        H643   1.083       .  S
C639        C640   1.423       .  A
C640        N641   1.432       .  S
N641        H645   1.046       .  S
N641        H646   1.045       .  S
N644        H647   1.046       .  S
N644        H648   1.044       .  S
O649       Zr661   2.437       .  S
O649        C651   1.285       .  A
O650       Zr687   2.412       .  S
O650        C651   1.281       .  A
C651       C1270   1.481       .  S
O652       Zr664   2.514       .  S
O652        C654   1.292       .  A
O653       Zr688   2.392       .  S
O653        C654   1.266       .  A
C654       C1189   1.510       .  S
O655       Zr664   2.517       .  S
O655        C657   1.302       .  A
O656       Zr687   2.366       .  S
O656        C657   1.275       .  A
C657       C1287   1.503       .  S
O658       Zr661   2.440       .  S
O658        C660   1.285       .  A
O659       Zr688   2.392       .  S
O659        C660   1.280       .  A
C660       C1203   1.469       .  S
Zr661       O662   2.435       .  S
Zr661       O663   2.436       .  S
Zr661       O667   2.270       .  S
Zr661       O668   2.360       .  S
Zr661       O691   2.380       .  S
Zr661       O693   2.371       .  S
O662        H705   0.990       .  S
O663        H704   0.990       .  S
O663        H708   0.990       .  S
Zr664       O665   2.437       .  S
Zr664       O666   2.434       .  S
Zr664       O667   2.278       .  S
Zr664       O668   2.391       .  S
Zr664       O692   2.398       .  S
Zr664       O694   2.403       .  S
O665        H706   0.990       .  S
O665        H709   0.991       .  S
O666        H699   0.990       .  S
O667       Zr687   2.239       .  S
O668       Zr688   2.392       .  S
O668        H695   0.960       .  S
O669       Zr681   2.565       .  S
O669        C671   1.311       .  A
O670       Zr688   2.353       .  S
O670        C671   1.272       .  A
C671       C1217   1.511       .  S
O672       Zr684   2.432       .  S
O672        C674   1.284       .  A
O673       Zr687   2.393       .  S
O673        C674   1.280       .  A
C674       C1242   1.470       .  S
O675       Zr684   2.471       .  S
O675        C677   1.293       .  A
O676       Zr688   2.408       .  S
O676        C677   1.282       .  A
C677       C1228   1.479       .  S
O678       Zr681   2.516       .  S
O678        C680   1.297       .  A
O679       Zr687   2.375       .  S
O679        C680   1.269       .  A
C680       C1256   1.502       .  S
Zr681       O682   2.437       .  S
Zr681       O683   2.434       .  S
Zr681       O690   2.297       .  S
Zr681       O689   2.337       .  S
Zr681       O693   2.401       .  S
Zr681       O691   2.390       .  S
O682        H702   0.990       .  S
O682        H707   0.990       .  S
O683        H703   0.990       .  S
Zr684       O685   2.437       .  S
Zr684       O686   2.433       .  S
Zr684       O690   2.285       .  S
Zr684       O689   2.364       .  S
Zr684       O694   2.372       .  S
Zr684       O692   2.389       .  S
O685        H701   0.990       .  S
O686        H700   0.990       .  S
O686        H710   0.990       .  S
Zr687       O690   2.260       .  S
Zr687       O692   2.387       .  S
Zr687       O693   2.391       .  S
Zr688       O689   2.380       .  S
Zr688       O691   2.389       .  S
Zr688       O694   2.381       .  S
O689        H697   0.959       .  S
O692        H696   0.966       .  S
O693        H698   0.965       .  S
O711       Zr723   2.531       .  S
O711        C713   1.302       .  A
O712       Zr749   2.372       .  S
O712        C713   1.270       .  A
C713       C1158   1.512       .  S
O714       Zr726   2.463       .  S
O714        C716   1.290       .  A
O715       Zr750   2.410   1_655  S
O715        C716   1.284       .  A
C716       C1105   1.480       .  S
O717       Zr726   2.437       .  S
O717        C719   1.285       .  A
O718       Zr749   2.420   1_655  S
O718        C719   1.284       .  A
C719       C1172   1.480       .  S
O720       Zr723   2.509       .  S
O720        C722   1.293       .  A
O721       Zr750   2.392       .  S
O721        C722   1.272       .  A
C722       C1116   1.507       .  S
Zr723       O724   2.435       .  S
Zr723       O725   2.436       .  S
Zr723       O729   2.280   1_455  S
Zr723       O730   2.390       .  S
Zr723       O753   2.411       .  S
Zr723       O755   2.395       .  S
O724        H767   0.990       .  S
O725        H766   0.990       .  S
O725        H770   0.990       .  S
Zr726       O727   2.440       .  S
Zr726       O728   2.435       .  S
Zr726       O729   2.280       .  S
Zr726       O730   2.359   1_655  S
Zr726       O754   2.379       .  S
Zr726       O756   2.375       .  S
O727        H768   0.990       .  S
O727        H771   0.991       .  S
O728        H761   0.990       .  S
O729       Zr749   2.243   1_655  S
O730       Zr750   2.395       .  S
O730        H757   0.961       .  S
O731       Zr743   2.478       .  S
O731        C733   1.294       .  A
O732       Zr750   2.423       .  S
O732        C733   1.286       .  A
C733       C1077   1.491       .  S
O734       Zr746   2.520       .  S
O734        C736   1.300       .  A
O735       Zr749   2.373   1_655  S
O735        C736   1.271       .  A
C736       C1130   1.503       .  S
O737       Zr746   2.558       .  S
O737        C739   1.309       .  A
O738       Zr750   2.355   1_655  S
O738        C739   1.276       .  A
C739       C1088   1.516       .  S
O740       Zr743   2.446       .  S
O740        C742   1.286       .  A
O741       Zr749   2.385       .  S
O741        C742   1.277       .  A
C742       C1147   1.464       .  S
Zr743       O744   2.440       .  S
Zr743       O745   2.434       .  S
Zr743       O752   2.284       .  S
Zr743       O751   2.364       .  S
Zr743       O755   2.388       .  S
Zr743       O753   2.378       .  S
O744        H764   0.990       .  S
O744        H769   0.990       .  S
O745        H765   0.990       .  S
Zr746       O747   2.435       .  S
Zr746       O748   2.433       .  S
Zr746       O752   2.291   1_655  S
Zr746       O751   2.338   1_655  S
Zr746       O756   2.393       .  S
Zr746       O754   2.394       .  S
O747        H763   0.990       .  S
O748        H762   0.990       .  S
O748        H772   0.990       .  S
Zr749       O752   2.258       .  S
Zr749       O754   2.386   1_455  S
Zr749       O755   2.388       .  S
Zr750       O751   2.385       .  S
Zr750       O753   2.385       .  S
Zr750       O756   2.391   1_455  S
O751        H759   0.959       .  S
O754        H758   0.966       .  S
O755        H760   0.966       .  S
O773       Zr785   2.445       .  S
O773        C775   1.286       .  A
O774       Zr811   2.392       .  S
O774        C775   1.278       .  A
C775       C1046   1.486       .  S
O776       Zr788   2.457       .  S
O776        C778   1.289       .  A
O777       Zr812   2.439       .  S
O777        C778   1.290       .  A
C778        C990   1.499       .  S
O779       Zr788   2.448       .  S
O779        C781   1.288       .  A
O780       Zr811   2.428   1_545  S
O780        C781   1.286       .  A
C781       C1063   1.500       .  S
O782       Zr785   2.466       .  S
O782        C784   1.291       .  A
O783       Zr812   2.378   1_565  S
O783        C784   1.276       .  A
C784       C1004   1.476       .  S
Zr785       O786   2.437       .  S
Zr785       O787   2.435       .  S
Zr785       O791   2.278       .  S
Zr785       O792   2.372       .  S
Zr785       O815   2.379       .  S
Zr785       O817   2.386       .  S
O786        H829   0.990       .  S
O787        H828   0.990       .  S
O787        H832   0.990       .  S
Zr788       O789   2.439       .  S
Zr788       O790   2.434       .  S
Zr788       O791   2.273   1_545  S
Zr788       O792   2.363   1_545  S
Zr788       O816   2.379       .  S
Zr788       O818   2.386       .  S
O789        H830   0.990       .  S
O789        H833   0.990       .  S
O790        H823   0.990       .  S
O791       Zr811   2.248       .  S
O792       Zr812   2.386   1_565  S
O792        H819   0.962       .  S
O793       Zr805   2.479       .  S
O793        C795   1.295       .  A
O794       Zr812   2.424   1_565  S
O794        C795   1.286       .  A
C795        C965   1.505       .  S
O796       Zr808   2.456       .  S
O796        C798   1.289       .  A
O797       Zr811   2.384   1_545  S
O797        C798   1.271       .  A
C798       C1021   1.485       .  S
O799       Zr808   2.485       .  S
O799        C801   1.295       .  A
O800       Zr812   2.384       .  S
O800        C801   1.278       .  A
C801        C979   1.480       .  S
O802       Zr805   2.455       .  S
O802        C804   1.290       .  A
O803       Zr811   2.422       .  S
O803        C804   1.285       .  A
C804       C1032   1.498       .  S
Zr805       O806   2.439       .  S
Zr805       O807   2.434       .  S
Zr805       O814   2.278   1_565  S
Zr805       O813   2.361   1_565  S
Zr805       O817   2.385       .  S
Zr805       O815   2.383       .  S
O806        H826   0.990       .  S
O806        H831   0.990       .  S
O807        H827   0.990       .  S
Zr808       O809   2.437       .  S
Zr808       O810   2.435       .  S
Zr808       O814   2.283       .  S
Zr808       O813   2.368       .  S
Zr808       O818   2.384       .  S
Zr808       O816   2.394       .  S
O809        H825   0.990       .  S
O810        H824   0.990       .  S
O810        H834   0.990       .  S
Zr811       O814   2.259   1_565  S
Zr811       O816   2.393   1_565  S
Zr811       O817   2.391       .  S
Zr812       O813   2.389       .  S
Zr812       O815   2.393   1_545  S
Zr812       O818   2.392       .  S
O813        H821   0.961       .  S
O816        H820   0.966       .  S
O817        H822   0.966       .  S
C835        C895   1.497       .  S
C835        N836   1.381       .  A
C835        N840   1.386       .  A
N836        C837   1.370       .  A
C837       C1284   1.469       .  S
C837        N838   1.332       .  A
N838        C839   1.331       .  A
C839       C1161   1.478       .  S
C839        N840   1.374       .  A
C841        C894   1.446       .  S
C841        N842   1.357       .  A
C841        N846   1.358       .  A
N842        C843   1.355       .  A
C843       C1245   1.455       .  S
C843        N844   1.348       .  A
N844        C845   1.349       .  A
C845       C1144   1.457       .  S
C845        N846   1.356       .  A
C847        C931   1.496       .  S
C847        N848   1.373       .  A
C847        N852   1.373       .  A
N848        C849   1.355       .  A
C849       C1035   1.471       .  S
C849        N850   1.336       .  A
N850        C851   1.344       .  A
C851       C1074   1.466       .  S
C851        N852   1.374       .  A
C853        C929   1.477       .  S
C853        N854   1.371       .  A
C853        N858   1.365       .  A
N854        C855   1.366       .  A
C855       C1133   1.472       .  S
C855        N856   1.344       .  A
N856        C857   1.344       .  A
C857        C976   1.462       .  S
C857        N858   1.361       .  A
C859        C897   1.489       .  S
C859        N860   1.370       .  A
C859        N864   1.375       .  A
N860        C861   1.368       .  A
C861       C1175   1.459       .  S
C861        N862   1.341       .  A
N862        C863   1.335       .  A
C863        C993   1.471       .  S
C863        N864   1.358       .  A
C865        C896   1.489       .  S
C865        N866   1.369       .  A
C865        N870   1.376       .  A
N866        C867   1.368       .  A
C867       C1273   1.459       .  S
C867        N868   1.343       .  A
N868        C869   1.336       .  A
C869       C1060   1.474       .  S
C869        N870   1.358       .  A
C871        C927   1.484       .  S
C871        N872   1.363       .  A
C871        N876   1.379       .  A
N872        C873   1.355       .  A
C873       C1049   1.455       .  S
C873        N874   1.339       .  A
N874        C875   1.340       .  A
C875       C1119   1.479       .  S
C875        N876   1.375       .  A
C877        C930   1.475       .  S
C877        N878   1.359       .  A
C877        N882   1.374       .  A
N878        C879   1.353       .  A
C879       C1018   1.456       .  S
C879        N880   1.344       .  A
N880        C881   1.345       .  A
C881       C1259   1.475       .  S
C881        N882   1.372       .  A
O883       Zr919   2.454       .  S
O883        C894   1.296       .  A
O884       Zr918   2.620   1_445  S
O884        C895   1.329       .  A
O885       Zr891   2.533       .  S
O885        C896   1.307       .  A
O886       Zr891   2.519   1_655  S
O886        C897   1.305       .  A
O887        C897   1.282       .  A
O888        C896   1.281       .  A
O889       Zr891   2.314       .  S
O889        C895   1.269       .  A
O890        C894   1.286       .  A
Zr891       O892   2.346   1_455  S
Zr891       O899   2.346       .  S
O892       Zr918   2.336   1_545  S
O893       Zr919   2.367       .  S
O893       Zr920   2.319   1_545  S
H898        O899   0.964       .  S
O899       Zr918   2.334   1_445  S
H900        O901   0.964       .  S
O901       Zr919   2.380   1_655  S
O901       Zr921   2.336   1_545  S
O902       Zr918   2.445       .  S
O902        C925   1.294       .  A
O903       Zr919   2.605   1_665  S
O903        C926   1.326       .  A
O904        C927   1.291       .  A
O905        C928   1.292       .  A
O906       Zr921   2.441   1_545  S
O906        C929   1.292       .  A
O907       Zr920   2.424   1_545  S
O907        C930   1.289       .  A
O908       Zr922   2.541   1_455  S
O908        C931   1.308       .  A
O909       Zr922   2.539       .  S
O909        C932   1.309       .  A
O910       Zr920   2.382       .  S
O910        C931   1.282       .  A
O911       Zr921   2.372       .  S
O911        C932   1.279       .  A
O912       Zr918   2.484   1_455  S
O912        C927   1.300       .  A
O913       Zr919   2.484       .  S
O913        C930   1.300       .  A
O914       Zr919   2.485   1_655  S
O914        C929   1.301       .  A
O915       Zr918   2.487       .  S
O915        C928   1.300       .  A
O916        C925   1.286       .  A
O917       Zr922   2.318       .  S
O917        C926   1.270       .  A
Zr918       O924   2.371       .  S
Zr918       O936   2.388       .  S
Zr919       O923   2.338   1_445  S
Zr919       O934   2.340   1_545  S
Zr920       O934   2.339       .  S
Zr921       O923   2.336       .  S
Zr922       O923   2.341       .  S
Zr922       O934   2.345   1_655  S
C925        C955   1.436       .  S
C926        C949   1.492       .  S
C928        C943   1.480       .  S
C932        C937   1.493       .  S
H933        O934   0.964       .  S
H935        O936   0.964       .  S
C937        N938   1.369       .  A
C937        N942   1.377       .  A
N938        C939   1.368       .  A
C939       C1231   1.460       .  S
C939        N940   1.344       .  A
N940        C941   1.335       .  A
C941        C962   1.476       .  S
C941        N942   1.359       .  A
C943        N944   1.375       .  A
C943        N948   1.360       .  A
N944        C945   1.372       .  A
C945       C1186   1.475       .  S
C945        N946   1.345       .  A
N946        C947   1.342       .  A
C947       C1007   1.457       .  S
C947        N948   1.355       .  A
C949        N950   1.381       .  A
C949        N954   1.381       .  A
N950        C951   1.370       .  A
C951       C1091   1.476       .  S
C951        N952   1.335       .  A
N952        C953   1.336       .  A
C953       C1214   1.476       .  S
C953        N954   1.371       .  A
C955        N956   1.351       .  A
C955        N960   1.359       .  A
N956        C957   1.348       .  A
C957       C1200   1.444       .  S
C957        N958   1.348       .  A
N958        C959   1.347       .  A
C959       C1102   1.457       .  S
C959        N960   1.357       .  A
C961        C962   1.402       .  A
C961        C966   1.409       .  A
C961        H968   1.085       .  S
C962        C963   1.413       .  A
C963        C964   1.407       .  A
C963        N970   1.437       .  S
C964        C965   1.410       .  A
C964        H969   1.083       .  S
C965        C966   1.423       .  A
C966        N967   1.438       .  S
N967        H971   1.046       .  S
N967        H972   1.046       .  S
N970        H973   1.045       .  S
N970        H974   1.046       .  S
C975        C976   1.402       .  A
C975        C980   1.400       .  A
C975        H982   1.085       .  S
C976        C977   1.412       .  A
C977        C978   1.404       .  A
C977        N984   1.438       .  S
C978        C979   1.407       .  A
C978        H983   1.084       .  S
C979        C980   1.411       .  A
C980        N981   1.433       .  S
N981        H985   1.046       .  S
N981        H986   1.046       .  S
N984        H987   1.044       .  S
N984        H988   1.046       .  S
C989        C990   1.409       .  A
C989        C994   1.401       .  A
C989        H996   1.082       .  S
C990        C991   1.421       .  A
C991        C992   1.409       .  A
C991        N998   1.438       .  S
C992        C993   1.402       .  A
C992        H997   1.084       .  S
C993        C994   1.411       .  A
C994        N995   1.432       .  S
N995        H999   1.045       .  S
N995       H1000   1.043       .  S
N998       H1001   1.046       .  S
N998       H1002   1.046       .  S
C1003      C1004   1.407       .  A
C1003      C1008   1.400       .  A
C1003      H1010   1.084       .  S
C1004      C1005   1.415       .  A
C1005      C1006   1.399       .  A
C1005      N1012   1.439       .  S
C1006      C1007   1.401       .  A
C1006      H1011   1.085       .  S
C1007      C1008   1.409       .  A
C1008      N1009   1.437       .  S
N1009      H1013   1.046       .  S
N1009      H1014   1.045       .  S
N1012      H1015   1.045       .  S
N1012      H1016   1.046       .  S
C1017      C1018   1.397       .  A
C1017      C1022   1.392       .  A
C1017      H1024   1.085       .  S
C1018      C1019   1.409       .  A
C1019      C1020   1.398       .  A
C1019      N1026   1.437       .  S
C1020      C1021   1.407       .  A
C1020      H1025   1.083       .  S
C1021      C1022   1.425       .  A
C1022      N1023   1.435       .  S
N1023      H1027   1.045       .  S
N1023      H1028   1.043       .  S
N1026      H1029   1.045       .  S
N1026      H1030   1.046       .  S
C1031      C1032   1.411       .  A
C1031      C1036   1.407       .  A
C1031      H1038   1.083       .  S
C1032      C1033   1.418       .  A
C1033      C1034   1.404       .  A
C1033      N1040   1.438       .  S
C1034      C1035   1.402       .  A
C1034      H1039   1.085       .  S
C1035      C1036   1.411       .  A
C1036      N1037   1.437       .  S
N1037      H1041   1.046       .  S
N1037      H1042   1.045       .  S
N1040      H1043   1.046       .  S
N1040      H1044   1.046       .  S
C1045      C1046   1.409       .  A
C1045      C1050   1.399       .  A
C1045      H1052   1.083       .  S
C1046      C1047   1.417       .  A
C1047      C1048   1.404       .  A
C1047      N1054   1.437       .  S
C1048      C1049   1.401       .  A
C1048      H1053   1.084       .  S
C1049      C1050   1.406       .  A
C1050      N1051   1.440       .  S
N1051      H1055   1.045       .  S
N1051      H1056   1.045       .  S
N1054      H1057   1.046       .  S
N1054      H1058   1.046       .  S
C1059      C1060   1.404       .  A
C1059      C1064   1.406       .  A
C1059      H1066   1.085       .  S
C1060      C1061   1.407       .  A
C1061      C1062   1.412       .  A
C1061      N1068   1.438       .  S
C1062      C1063   1.412       .  A
C1062      H1067   1.083       .  S
C1063      C1064   1.417       .  A
C1064      N1065   1.439       .  S
N1065      H1069   1.046       .  S
N1065      H1070   1.046       .  S
N1068      H1071   1.046       .  S
N1068      H1072   1.046       .  S
C1073      C1074   1.406       .  A
C1073      C1078   1.407       .  A
C1073      H1080   1.085       .  S
C1074      C1075   1.405       .  A
C1075      C1076   1.410       .  A
C1075      N1082   1.437       .  S
C1076      C1077   1.412       .  A
C1076      H1081   1.083       .  S
C1077      C1078   1.412       .  A
C1078      N1079   1.438       .  S
N1079      H1083   1.045       .  S
N1079      H1084   1.045       .  S
N1082      H1085   1.045       .  S
N1082      H1086   1.046       .  S
C1087      C1088   1.422       .  A
C1087      C1092   1.405       .  A
C1087      H1094   1.082       .  S
C1088      C1089   1.417       .  A
C1089      C1090   1.413       .  A
C1089      N1096   1.431       .  S
C1090      C1091   1.413       .  A
C1090      H1095   1.084       .  S
C1091      C1092   1.401       .  A
C1092      N1093   1.440       .  S
N1093      H1097   1.046   1_655  S
N1093      H1098   1.045       .  S
N1096      H1099   1.045       .  S
N1096      H1100   1.045       .  S
C1101      C1102   1.398       .  A
C1101      C1106   1.404       .  A
C1101      H1108   1.084       .  S
C1102      C1103   1.404       .  A
C1103      C1104   1.398       .  A
C1103      N1110   1.433       .  S
C1104      C1105   1.404       .  A
C1104      H1109   1.084       .  S
C1105      C1106   1.418       .  A
C1106      N1107   1.437       .  S
N1107      H1111   1.046       .  S
N1107      H1112   1.045       .  S
N1110      H1113   1.046       .  S
N1110      H1114   1.043       .  S
C1115      C1116   1.411       .  A
C1115      C1120   1.399       .  A
C1115      H1122   1.083       .  S
C1116      C1117   1.417       .  A
C1117      C1118   1.422       .  A
C1117      N1124   1.436       .  S
C1118      C1119   1.411       .  A
C1118      H1123   1.083       .  S
C1119      C1120   1.407       .  A
C1120      N1121   1.434       .  S
N1121      H1125   1.045       .  S
N1121      H1126   1.046       .  S
N1124      H1127   1.045       .  S
N1124      H1128   1.045       .  S
C1129      C1130   1.405       .  A
C1129      C1134   1.413       .  A
C1129      H1136   1.083       .  S
C1130      C1131   1.426       .  A
C1131      C1132   1.397       .  A
C1131      N1138   1.432       .  S
C1132      C1133   1.392       .  A
C1132      H1137   1.086       .  S
C1133      C1134   1.420       .  A
C1134      N1135   1.436       .  S
N1135      H1139   1.046       .  S
N1135      H1140   1.045       .  S
N1138      H1141   1.043   1_655  S
N1138      H1142   1.046       .  S
C1143      C1144   1.402       .  A
C1143      C1148   1.394       .  A
C1143      H1150   1.085       .  S
C1144      C1145   1.409       .  A
C1145      C1146   1.403       .  A
C1145      N1152   1.437       .  S
C1146      C1147   1.406       .  A
C1146      H1151   1.084       .  S
C1147      C1148   1.409       .  A
C1148      N1149   1.441       .  S
N1149      H1153   1.045       .  S
N1149      H1154   1.042       .  S
N1152      H1155   1.044       .  S
N1152      H1156   1.045       .  S
C1157      C1158   1.405       .  A
C1157      C1162   1.421       .  A
C1157      H1164   1.083       .  S
C1158      C1159   1.429       .  A
C1159      C1160   1.403       .  A
C1159      N1166   1.433       .  S
C1160      C1161   1.394       .  A
C1160      H1165   1.085       .  S
C1161      C1162   1.421       .  A
C1162      N1163   1.438       .  S
N1163      H1167   1.046       .  S
N1163      H1168   1.045       .  S
N1166      H1169   1.045   1_455  S
N1166      H1170   1.045       .  S
C1171      C1172   1.401       .  A
C1171      C1176   1.397       .  A
C1171      H1178   1.084       .  S
C1172      C1173   1.419       .  A
C1173      C1174   1.408       .  A
C1173      N1180   1.437       .  S
C1174      C1175   1.397       .  A
C1174      H1179   1.084       .  S
C1175      C1176   1.412       .  A
C1176      N1177   1.435       .  S
N1177      H1181   1.044       .  S
N1177      H1182   1.046       .  S
N1180      H1183   1.045       .  S
N1180      H1184   1.045       .  S
C1185      C1186   1.395       .  A
C1185      C1190   1.395       .  A
C1185      H1192   1.086       .  S
C1186      C1187   1.414       .  A
C1187      C1188   1.420       .  A
C1187      N1194   1.436       .  S
C1188      C1189   1.411       .  A
C1188      H1193   1.083       .  S
C1189      C1190   1.431       .  A
C1190      N1191   1.433       .  S
N1191      H1195   1.041       .  S
N1191      H1196   1.045       .  S
N1194      H1197   1.045       .  S
N1194      H1198   1.046       .  S
C1199      C1200   1.393       .  A
C1199      C1204   1.392       .  A
C1199      H1206   1.084       .  S
C1200      C1201   1.410       .  A
C1201      C1202   1.386       .  A
C1201      N1208   1.434       .  S
C1202      C1203   1.402       .  A
C1202      H1207   1.084       .  S
C1203      C1204   1.420       .  A
C1204      N1205   1.430       .  S
N1205      H1209   1.046       .  S
N1205      H1210   1.043       .  S
N1208      H1211   1.044       .  S
N1208      H1212   1.045       .  S
C1213      C1214   1.393       .  A
C1213      C1218   1.398       .  A
C1213      H1220   1.085       .  S
C1214      C1215   1.417       .  A
C1215      C1216   1.419       .  A
C1215      N1222   1.437       .  S
C1216      C1217   1.407       .  A
C1216      H1221   1.083       .  S
C1217      C1218   1.435       .  A
C1218      N1219   1.433       .  S
N1219      H1223   1.046       .  S
N1219      H1224   1.042       .  S
N1222      H1225   1.045       .  S
N1222      H1226   1.045       .  S
C1227      C1228   1.401       .  A
C1227      C1232   1.401       .  A
C1227      H1234   1.084       .  S
C1228      C1229   1.418       .  A
C1229      C1230   1.403       .  A
C1229      N1236   1.432       .  S
C1230      C1231   1.395       .  A
C1230      H1235   1.084       .  S
C1231      C1232   1.415       .  A
C1232      N1233   1.439       .  S
N1233      H1237   1.046       .  S
N1233      H1238   1.045       .  S
N1236      H1239   1.046       .  S
N1236      H1240   1.045       .  S
C1241      C1242   1.406       .  A
C1241      C1246   1.399       .  A
C1241      H1248   1.084       .  S
C1242      C1243   1.407       .  A
C1243      C1244   1.391       .  A
C1243      N1250   1.431       .  S
C1244      C1245   1.400       .  A
C1244      H1249   1.085       .  S
C1245      C1246   1.408       .  A
C1246      N1247   1.431       .  S
N1247      H1251   1.045       .  S
N1247      H1252   1.045       .  S
N1250      H1253   1.045       .  S
N1250      H1254   1.043       .  S
C1255      C1256   1.414       .  A
C1255      C1260   1.394       .  A
C1255      H1262   1.084       .  S
C1256      C1257   1.409       .  A
C1257      C1258   1.418       .  A
C1257      N1264   1.430       .  S
C1258      C1259   1.412       .  A
C1258      H1263   1.083       .  S
C1259      C1260   1.408       .  A
C1260      N1261   1.435       .  S
N1261      H1265   1.045       .  S
N1261      H1266   1.045       .  S
N1264      H1267   1.046       .  S
N1264      H1268   1.045       .  S
C1269      C1270   1.411       .  A
C1269      C1274   1.405       .  A
C1269      H1276   1.083       .  S
C1270      C1271   1.409       .  A
C1271      C1272   1.398       .  A
C1271      N1278   1.433       .  S
C1272      C1273   1.407       .  A
C1272      H1277   1.085       .  S
C1273      C1274   1.403       .  A
C1274      N1275   1.437       .  S
N1275      H1279   1.046       .  S
N1275      H1280   1.045       .  S
N1278      H1281   1.044       .  S
N1278      H1282   1.046       .  S
C1283      C1284   1.395       .  A
C1283      C1288   1.402       .  A
C1283      H1290   1.085       .  S
C1284      C1285   1.416       .  A
C1285      C1286   1.413       .  A
C1285      N1292   1.432       .  S
C1286      C1287   1.404       .  A
C1286      H1291   1.083       .  S
C1287      C1288   1.425       .  A
C1288      N1289   1.432       .  S
N1289      H1293   1.046       .  S
N1289      H1294   1.045       .  S
N1292      H1295   1.046       .  S
N1292      H1296   1.045       .  S
