geometry optimzed in LAMMPS
_audit_creation_date              2020-12-01 
_audit_creation_method            'lammps2cif' 
_symmetry_space_group_name_H-M    'P1' 
_symmetry_Int_Tables_number       1 
_symmetry_cell_setting            triclinic 
loop_ 
_symmetry_equiv_pos_as_xyz 
  x,y,z 
_cell_length_a                    27.60973728 
_cell_length_b                    27.592595282282815 
_cell_length_c                    31.36390684572089 
_cell_angle_alpha                 89.75260948844088 
_cell_angle_beta                  89.89743389279816 
_cell_angle_gamma                 89.8173372232612 
loop_ 
_atom_site_label 
_atom_site_type_symbol 
_atom_site_fract_x 
_atom_site_fract_y 
_atom_site_fract_z 
_atom_site_charge 
O1          O  0.94533460  0.95813257  0.71334678    -0.73100
O2          O  0.06118410  0.03546143  0.71081111    -0.73100
O3          O  0.04161198  0.93909967  0.70997131    -0.73100
O4          O  0.96431446  0.05434068  0.71346309    -0.73200
O5          O  0.96649338  0.05333101  0.78450563    -0.73100
O6          O  0.04484444  0.93834651  0.78101041    -0.73100
O7          O  0.06243174  0.03478664  0.78189654    -0.73100
O8          O  0.94796383  0.95719418  0.78436159    -0.73100
Ni9        Ni  0.00306160  0.99683140  0.70934284     1.25400
Ni10       Ni  0.00555406  0.99576319  0.78543383     1.25400
C11         C  0.92731338  0.94533897  0.74941008     0.89100
C12         C  0.08064348  0.04808904  0.74619215     0.89100
C13         C  0.05607690  0.91977069  0.74488301     0.89100
C14         C  0.95242733  0.07273243  0.74943645     0.89200
O15         O  0.96480241  0.06365416  0.22262425    -0.73100
O16         O  0.03718690  0.94479367  0.21905241    -0.73100
O17         O  0.94194543  0.96831497  0.22121281    -0.73100
O18         O  0.05975843  0.04060673  0.21989526    -0.73200
O19         O  0.06099164  0.03962631  0.29100125    -0.73100
O20         O  0.94436995  0.96429831  0.29218091    -0.73100
O21         O  0.04035095  0.94404068  0.29008267    -0.73100
O22         O  0.96459916  0.06030331  0.29371902    -0.73100
Ni23       Ni  0.00086697  0.00438873  0.21817029     1.25400
Ni24       Ni  0.00263520  0.00206444  0.29429157     1.25400
C25         C  0.95244755  0.08123984  0.25881006     0.89100
C26         C  0.05096972  0.92501332  0.25409292     0.89100
C27         C  0.92387602  0.95402592  0.25671261     0.89100
C28         C  0.07972215  0.05219346  0.25518736     0.89200
N29         N  0.23499607  0.38206574  0.00641240    -0.35200
N30         N  0.22422919  0.45259465  0.93847341    -0.55800
N31         N  0.23010281  0.53050297  0.00129420    -0.35200
N32         N  0.23592109  0.45891224  0.06941374    -0.55800
C33         C  0.22546018  0.35248499  0.97323664     0.28300
C34         C  0.22937811  0.35579874  0.04253335     0.28300
C35         C  0.21578855  0.55560755  0.96633812     0.28300
C36         C  0.22206280  0.55907724  0.03558653     0.28300
C37         C  0.23483948  0.41299319  0.91494665     0.37000
C38         C  0.22965296  0.49122308  0.91227921     0.37000
C39         C  0.24771777  0.42096519  0.09481543     0.37000
C40         C  0.24479887  0.49948425  0.09209565     0.37000
C41         C  0.21334271  0.30682853  0.98835121    -0.20500
C42         C  0.21554185  0.30897468  0.03217006    -0.20500
C43         C  0.19945175  0.60107982  0.97838249    -0.20500
C44         C  0.20352609  0.60334169  0.02204690    -0.20500
C45         C  0.24664290  0.42659714  0.87359633    -0.21600
C46         C  0.24284782  0.47611905  0.87181316    -0.21600
C47         C  0.26416367  0.43755382  0.13384642    -0.21600
C48         C  0.26172442  0.48718802  0.13232314    -0.21600
C49         C  0.23210940  0.36460816  0.92981934    -0.16900
C50         C  0.24144485  0.37157667  0.08406753    -0.16900
C51         C  0.23324215  0.54707725  0.07845583    -0.16900
C52         C  0.22021354  0.53976581  0.92370142    -0.16900
H53         H  0.20492544  0.27503991  0.96970068     0.16000
H54         H  0.20920372  0.27904450  0.05387593     0.16000
H55         H  0.18649968  0.62990471  0.95780789     0.16000
H56         H  0.19434928  0.63437403  0.04145493     0.16000
H57         H  0.25680507  0.40337484  0.84732549     0.14300
H58         H  0.24939367  0.49848164  0.84397140     0.14300
H59         H  0.27606058  0.41624194  0.16092683     0.14300
H60         H  0.27098776  0.51126251  0.15815380     0.14300
H61         H  0.25136447  0.41576437  0.00423789     0.27500
H62         H  0.24890321  0.49789078  0.00124522     0.27500
C63         C  0.67443725  0.79787787  0.72489852     0.87900
C64         C  0.72071890  0.82746350  0.71732727    -0.52400
C65         C  0.74659431  0.83760247  0.75343030     0.10800
C66         C  0.72281138  0.81771350  0.79446015     0.10900
C67         C  0.69123318  0.75266183  0.75051628    -0.53100
C68         C  0.71648732  0.76318834  0.78690993     0.10900
C69         C  0.64560154  0.82690055  0.75822304    -0.52600
C70         C  0.67095754  0.83778044  0.79401007     0.11500
H71         H  0.73139763  0.83997971  0.68583908     0.16000
H72         H  0.74251950  0.82584921  0.82435749     0.01700
H73         H  0.68130947  0.71576455  0.74318631     0.16300
H74         H  0.60794687  0.83752155  0.75428391     0.16100
C75         C  0.68017147  0.79126826  0.27585216     0.87900
C76         C  0.65159140  0.82271209  0.24389542    -0.52400
C77         C  0.67713670  0.83604161  0.20863831     0.10800
C78         C  0.72913536  0.81650234  0.20757679     0.21700
C79         C  0.69808050  0.74816598  0.24844126    -0.53100
C80         C  0.72316148  0.76150092  0.21261860     0.10900
C81         C  0.72635621  0.82036102  0.28507118    -0.52600
C82         C  0.75204258  0.83394672  0.24964874     0.11500
H83         H  0.61395542  0.83309284  0.24852655     0.16000
H84         H  0.74921658  0.82676271  0.17822962     0.01700
H85         H  0.69026439  0.71045529  0.25396271     0.16300
H86         H  0.73645256  0.83109113  0.31709660     0.16100
C87         C  0.32691310  0.20565050  0.28184059     0.87900
C88         C  0.35924885  0.17483926  0.25223496    -0.52400
C89         C  0.33718621  0.15999998  0.21570824     0.10800
C90         C  0.28471565  0.17786280  0.21144097     0.21700
C91         C  0.31051060  0.24786433  0.25256921    -0.53100
C92         C  0.28829925  0.23302307  0.21605483     0.10900
C93         C  0.28104763  0.17545553  0.28889026    -0.52600
C94         C  0.25875791  0.16077461  0.25229668     0.11500
H95         H  0.39673197  0.16596159  0.25938268     0.16000
H96         H  0.26738027  0.16631188  0.18125282     0.01700
H97         H  0.31848603  0.28576094  0.25735199     0.16300
H98         H  0.26683665  0.16764770  0.32047396     0.16100
C99         C  0.32422281  0.21143319  0.72998117     0.87900
C100        C  0.27979247  0.18007926  0.71991786    -0.52400
C101        C  0.25666517  0.16165752  0.75495115     0.10800
C102        C  0.28021072  0.17678916  0.79743262     0.21700
C103        C  0.30433098  0.25077081  0.76055484    -0.53100
C104        C  0.28135588  0.23217377  0.79561005     0.10900
C105        C  0.35628925  0.17968388  0.75895742    -0.52600
C106        C  0.33376059  0.16171857  0.79426325     0.11500
H107        H  0.26706236  0.17430993  0.68760496     0.16000
H108        H  0.26195843  0.16272533  0.82646328     0.01700
H109        H  0.30915600  0.28939229  0.75738215     0.16300
H110        H  0.39415680  0.17240535  0.75196877     0.16100
N111        N  0.56060889  0.95214746  0.00267227    -0.35200
N112        N  0.50329555  0.00070000  0.93812342    -0.55800
N113        N  0.44467980  0.04509111  0.00488101    -0.35200
N114        N  0.50560329  0.99958519  0.06941471    -0.55800
C115        C  0.58766007  0.94387097  0.96745714     0.28300
C116        C  0.58921422  0.94344370  0.03680616     0.28300
C117        C  0.42967298  0.07067684  0.97038329     0.28300
C118        C  0.43061527  0.06986084  0.03997239     0.28300
C119        C  0.52705729  0.96855206  0.91322837     0.37000
C120        C  0.46680123  0.01894708  0.91427211     0.37000
C121        C  0.53174919  0.96849346  0.09366809     0.37000
C122        C  0.47065477  0.01800690  0.09491549     0.37000
C123        C  0.63412139  0.93019584  0.97936510    -0.20500
C124        C  0.63502622  0.92970130  0.02318977    -0.20500
C125        C  0.40500529  0.11178267  0.98369982    -0.20500
C126        C  0.40552961  0.11123671  0.02760575    -0.20500
C127        C  0.50536222  0.96626304  0.87344124    -0.21600
C128        C  0.46756607  0.99869613  0.87393476    -0.21600
C129        C  0.51341152  0.96726358  0.13483630    -0.21600
C130        C  0.47491899  0.99893310  0.13570410    -0.21600
C131        C  0.57012367  0.94411443  0.92513017    -0.16900
C132        C  0.57387896  0.94384763  0.07977340    -0.16900
C133        C  0.43766843  0.05482075  0.08277338    -0.16900
C134        C  0.43525001  0.05637788  0.92734792    -0.16900
H135        H  0.66398113  0.92055059  0.95863213     0.16000
H136        H  0.66569494  0.91964670  0.04281478     0.16000
H137        H  0.38796700  0.13911445  0.96386918     0.16000
H138        H  0.38899772  0.13813553  0.04805425     0.16000
H139        H  0.51602255  0.94416312  0.84658230     0.14300
H140        H  0.44349568  0.00657683  0.84758349     0.14300
H141        H  0.52682874  0.94641296  0.16165207     0.14300
H142        H  0.45293272  0.00734349  0.16331770     0.14300
H143        H  0.52324670  0.95682257  0.00339882     0.27500
H144        H  0.45919678  0.01032910  0.00453525     0.27500
N145        N  0.77028231  0.61353788  0.99883229    -0.35200
N146        N  0.76780892  0.53822959  0.06488082    -0.55800
N147        N  0.77307665  0.46367019  0.00016750    -0.35200
N148        N  0.77138603  0.53802926  0.93420688    -0.55800
C149        C  0.75817088  0.64008732  0.03350384     0.28300
C150        C  0.75743181  0.63959174  0.96384597     0.28300
C151        C  0.76360822  0.43577626  0.03472773     0.28300
C152        C  0.76727503  0.43565844  0.96533369     0.28300
C153        C  0.77352980  0.57767486  0.08976972     0.37000
C154        C  0.77393954  0.49909161  0.09048374     0.37000
C155        C  0.77570136  0.57740091  0.90871443     0.37000
C156        C  0.78107118  0.49906764  0.90962376     0.37000
C157        C  0.73873126  0.68409738  0.02038942    -0.20500
C158        C  0.73813141  0.68372209  0.97648505    -0.20500
C159        C  0.75206124  0.38925247  0.02170843    -0.20500
C160        C  0.75440989  0.38916891  0.97786348    -0.20500
C161        C  0.78293053  0.56352288  0.13142253    -0.21600
C162        C  0.78317421  0.51380047  0.13188323    -0.21600
C163        C  0.78805397  0.56344753  0.86771885    -0.21600
C164        C  0.79173902  0.51384277  0.86833106    -0.21600
C165        C  0.76481922  0.62602430  0.07664585    -0.16900
C166        C  0.76377881  0.62520866  0.92082522    -0.16900
C167        C  0.77612788  0.45021526  0.92278430    -0.16900
C168        C  0.76877687  0.45024259  0.07764963    -0.16900
H169        H  0.72583191  0.71332228  0.04036903     0.16000
H170        H  0.72481521  0.71264815  0.95619812     0.16000
H171        H  0.74358134  0.35836194  0.04172267     0.16000
H172        H  0.74799080  0.35822428  0.95757151     0.16000
H173        H  0.78801570  0.58663706  0.15883847     0.14300
H174        H  0.78875189  0.49111924  0.15969842     0.14300
H175        H  0.79299432  0.58655205  0.84008300     0.14300
H176        H  0.79997372  0.49119024  0.84115800     0.14300
H177        H  0.78980917  0.58128924  0.99913509     0.27500
H178        H  0.78834737  0.49795010  0.00045073     0.27500
N179        N  0.38880679  0.73873545  0.49963317    -0.35200
N180        N  0.46149892  0.75331815  0.56529149    -0.55800
N181        N  0.53583889  0.76380958  0.49968398    -0.35200
N182        N  0.46228419  0.75324967  0.43385740    -0.55800
C183        C  0.36000682  0.74223632  0.53446558     0.28300
C184        C  0.36021165  0.74390783  0.46491137     0.28300
C185        C  0.56140268  0.77732464  0.53447703     0.28300
C186        C  0.56229647  0.77560764  0.46476127     0.28300
C187        C  0.42416144  0.73923549  0.59035319     0.37000
C188        C  0.50113480  0.75429107  0.59053274     0.37000
C189        C  0.42445828  0.74077346  0.40884922     0.37000
C190        C  0.50224185  0.75211381  0.40883390     0.37000
C191        C  0.31238714  0.74904054  0.52169630    -0.20500
C192        C  0.31255632  0.75036378  0.47782959    -0.20500
C193        C  0.60501551  0.79737131  0.52154527    -0.20500
C194        C  0.60572164  0.79605356  0.47765787    -0.20500
C195        C  0.44007802  0.73192179  0.63180228    -0.21600
C196        C  0.48873465  0.74151218  0.63192028    -0.21600
C197        C  0.44031856  0.73210198  0.36766039    -0.21600
C198        C  0.48941208  0.73952596  0.36755474    -0.21600
C199        C  0.37524495  0.73645331  0.57727800    -0.16900
C200        C  0.37537565  0.73977368  0.42192767    -0.16900
C201        C  0.54950573  0.76575474  0.42180422    -0.16900
C202        C  0.54786269  0.76930049  0.57756396    -0.16900
H203        H  0.28067064  0.75232236  0.54180117     0.16000
H204        H  0.28101871  0.75486143  0.45772551     0.16000
H205        H  0.63378522  0.81080628  0.54164514     0.16000
H206        H  0.63528510  0.80825864  0.45769072     0.16000
H207        H  0.41878607  0.72164356  0.65937256     0.14300
H208        H  0.51217323  0.73975054  0.65950870     0.14300
H209        H  0.41869440  0.72211712  0.34033854     0.14300
H210        H  0.51266181  0.73668103  0.33988475     0.14300
H211        H  0.42469777  0.72760056  0.49951712     0.27500
H212        H  0.50476242  0.74290548  0.49984773     0.27500
C213        C  0.19797899  0.66560763  0.77483279     0.87900
C214        C  0.16537102  0.63919587  0.74267998    -0.52400
C215        C  0.15687012  0.66445813  0.70614778     0.10800
C216        C  0.18219141  0.71363530  0.70402741     0.21700
C217        C  0.24420206  0.67599963  0.74824253    -0.53100
C218        C  0.23570638  0.70148109  0.71148058     0.10900
C219        C  0.17382793  0.71532255  0.78127008    -0.52600
C220        C  0.16540915  0.74050219  0.74430152     0.11500
H221        H  0.15192173  0.60259386  0.74733605     0.16000
H222        H  0.17560397  0.73346492  0.67368242     0.01700
H223        H  0.27988614  0.66182136  0.75536836     0.16300
H224        H  0.16280442  0.72856319  0.81237719     0.16100
C225        C  0.20358112  0.67477975  0.22426561     0.87900
C226        C  0.17653002  0.72288487  0.21671015    -0.52400
C227        C  0.16233405  0.74626194  0.25314125     0.10800
C228        C  0.17748342  0.71943326  0.29425283     0.21700
C229        C  0.24615667  0.68817184  0.25387135    -0.53100
C230        C  0.23239404  0.71167299  0.29014394     0.10900
C231        C  0.17008086  0.64515522  0.25373561    -0.52600
C232        C  0.15619278  0.66847008  0.28996414     0.11500
H233        H  0.16950918  0.73705958  0.18497456     0.16000
H234        H  0.16653203  0.73721629  0.32444099     0.01700
H235        H  0.28341172  0.67719357  0.24974297     0.16300
H236        H  0.15865027  0.60841326  0.24667945     0.16100
C237        C  0.78836493  0.32078909  0.22410730     0.87900
C238        C  0.81917597  0.27453498  0.21913528    -0.52400
C239        C  0.83260174  0.25328764  0.25685874     0.10800
C240        C  0.81280048  0.27956294  0.29637726     0.21700
C241        C  0.74492332  0.30438982  0.25190742    -0.53100
C242        C  0.75814885  0.28306343  0.28946374     0.10900
C243        C  0.81791885  0.35312655  0.25416189    -0.52600
C244        C  0.83039968  0.33201203  0.29195572     0.11500
H245        H  0.82987359  0.26021998  0.18831335     0.16000
H246        H  0.82235326  0.26239957  0.32729829     0.01700
H247        H  0.70712153  0.31066415  0.24539702     0.16300
H248        H  0.82804253  0.39000196  0.24591261     0.16100
C249        C  0.79834468  0.32185740  0.77726751     0.87900
C250        C  0.83356616  0.35106613  0.74921944    -0.52400
C251        C  0.84801027  0.32827660  0.71296096     0.10800
C252        C  0.82641494  0.27757199  0.70775637     0.21700
C253        C  0.75653002  0.30883283  0.74655019    -0.53100
C254        C  0.77157086  0.28584373  0.71033784     0.10900
C255        C  0.82370522  0.27305182  0.78523497    -0.52600
C256        C  0.83929536  0.25001607  0.74917081     0.11500
H257        H  0.84516129  0.38756128  0.75703860     0.16000
H258        H  0.83813327  0.25976000  0.67780776     0.01700
H259        H  0.71866595  0.31709470  0.75090737     0.16300
H260        H  0.82840845  0.25807508  0.81701908     0.16100
N261        N  0.04337642  0.55542491  0.49645203    -0.35200
N262        N  0.98617084  0.50580202  0.43329444    -0.55800
N263        N  0.95216355  0.43854773  0.49923435    -0.35200
N264        N  0.00582579  0.49171072  0.56251586    -0.55800
C265        C  0.04867036  0.58571705  0.46280257     0.28300
C266        C  0.05607539  0.58026823  0.53170060     0.28300
C267        C  0.92255113  0.42694981  0.46664606     0.28300
C268        C  0.93194489  0.42067639  0.53533120     0.28300
C269        C  0.01345584  0.53334070  0.40685548     0.37000
C270        C  0.96393169  0.47282370  0.40844976     0.37000
C271        C  0.03893130  0.51599339  0.58557297     0.37000
C272        C  0.99082760  0.45434212  0.58703470     0.37000
C273        C  0.06555969  0.63016347  0.47666473    -0.20500
C274        C  0.06951270  0.62699030  0.52024869    -0.20500
C275        C  0.88357586  0.40045117  0.48197333    -0.20500
C276        C  0.88942778  0.39659498  0.52537451    -0.20500
C277        C  0.00740540  0.51873252  0.36499858    -0.21600
C278        C  0.97606434  0.48034165  0.36600401    -0.21600
C279        C  0.04552722  0.49352371  0.62480674    -0.21600
C280        C  0.01465378  0.45464592  0.62586728    -0.21600
C281        C  0.04230723  0.57276770  0.41975759    -0.16900
C282        C  0.05921860  0.56090049  0.57342756    -0.16900
C283        C  0.95181238  0.42382429  0.57674340    -0.16900
C284        C  0.93103348  0.43738215  0.42317040    -0.16900
H285        H  0.07432946  0.66162047  0.45750340     0.16000
H286        H  0.08193650  0.65560076  0.54099339     0.16000
H287        H  0.85399879  0.38539927  0.46375325     0.16000
H288        H  0.86529403  0.37781132  0.54703305     0.16000
H289        H  0.02357136  0.53429671  0.33663798     0.14300
H290        H  0.96360736  0.46031158  0.33855482     0.14300
H291        H  0.06896962  0.50482944  0.65050820     0.14300
H292        H  0.00946531  0.43015826  0.65252483     0.14300
H293        H  0.03763396  0.51816835  0.49471279     0.27500
H294        H  0.98666181  0.45343193  0.49622968     0.27500
N295        N  0.61000615  0.25931861  0.50320648    -0.35200
N296        N  0.53858708  0.25577241  0.57079789    -0.55800
N297        N  0.46108381  0.25426031  0.50723357    -0.35200
N298        N  0.53354963  0.25295943  0.43995147    -0.55800
C299        C  0.63915483  0.25055890  0.53700110     0.28300
C300        C  0.63638504  0.25091005  0.46765575     0.28300
C301        C  0.43540898  0.24491101  0.54306151     0.28300
C302        C  0.43313088  0.24154629  0.47366732     0.28300
C303        C  0.57850931  0.26429197  0.59457348     0.37000
C304        C  0.49992920  0.26246266  0.59667425     0.37000
C305        C  0.57127978  0.26178623  0.41363497     0.37000
C306        C  0.49326542  0.25612193  0.41575713     0.37000
C307        C  0.68462044  0.23644633  0.52267135    -0.20500
C308        C  0.68294464  0.23697906  0.47886115    -0.20500
C309        C  0.38990477  0.22775621  0.53198561    -0.20500
C310        C  0.38859526  0.22542628  0.48825303    -0.20500
C311        C  0.56509218  0.27649473  0.63577160    -0.21600
C312        C  0.51542941  0.27481844  0.63722247    -0.21600
C313        C  0.55493813  0.27042213  0.37252374    -0.21600
C314        C  0.50551135  0.26640644  0.37379257    -0.21600
C315        C  0.62689955  0.25847501  0.58024226    -0.16900
C316        C  0.62044643  0.25839423  0.42541270    -0.16900
C317        C  0.44597645  0.24578676  0.43017180    -0.16900
C318        C  0.45126557  0.25278462  0.58542028    -0.16900
H319        H  0.71601541  0.22746408  0.54178736     0.16000
H320        H  0.71271055  0.22841571  0.45765546     0.16000
H321        H  0.36046702  0.21793674  0.55309936     0.16000
H322        H  0.35815701  0.21344895  0.46937062     0.16000
H323        H  0.58855281  0.28500823  0.66228382     0.14300
H324        H  0.49338738  0.28139490  0.66516806     0.14300
H325        H  0.57642337  0.27766411  0.34432323     0.14300
H326        H  0.48144389  0.27006593  0.34676450     0.14300
H327        H  0.57630397  0.27606220  0.50412898     0.27500
H328        H  0.49403135  0.27216722  0.50580631     0.27500
C329        C  0.91572236  0.32970206  0.65940266     0.25000
C330        C  0.87630480  0.35299255  0.67918144    -0.23100
C331        C  0.86247915  0.39959820  0.66530940     0.19900
C332        C  0.88740771  0.42234334  0.63216643     0.24900
C333        C  0.92643585  0.39897593  0.61223632    -0.23100
C334        C  0.94071373  0.35265145  0.62607265     0.19800
F335        F  0.97879069  0.32989151  0.60732187    -0.13000
F336        F  0.93049618  0.28522652  0.67285444    -0.15400
F337        F  0.87301545  0.46702993  0.61890781    -0.15400
F338        F  0.82358126  0.42242508  0.68270405    -0.13000
C339        C  0.67118107  0.22909503  0.64583891     0.25000
C340        C  0.66704974  0.26229489  0.61181442    -0.23100
C341        C  0.70061207  0.30038044  0.60846271     0.19900
C342        C  0.73607963  0.30659864  0.63968166     0.24900
C343        C  0.73821708  0.27520075  0.67492321    -0.23100
C344        C  0.70630235  0.23582883  0.67744403     0.19800
F345        F  0.70886610  0.20438016  0.71077608    -0.13000
F346        F  0.64057592  0.19081445  0.64878925    -0.15400
F347        F  0.76709675  0.34448315  0.63640746    -0.15400
F348        F  0.69807042  0.33239524  0.57553259    -0.13000
C349        C  0.89110420  0.33551413  0.35135897     0.25000
C350        C  0.85542154  0.35862188  0.32644288    -0.23100
C351        C  0.84336047  0.40735295  0.33501893     0.19900
C352        C  0.86740919  0.43265844  0.36696028     0.24900
C353        C  0.90356002  0.40973299  0.39103783    -0.23100
C354        C  0.91484455  0.36092246  0.38353208     0.19800
F355        F  0.94977139  0.33833289  0.40675764    -0.13000
F356        F  0.90445653  0.28898496  0.34363042    -0.15400
F357        F  0.85560753  0.47968717  0.37439987    -0.15400
F358        F  0.80758224  0.43037822  0.31318216    -0.13000
C359        C  0.66795844  0.22445964  0.36420387     0.25000
C360        C  0.65742561  0.26330939  0.39153673    -0.23100
C361        C  0.68063793  0.30794693  0.38562083     0.19900
C362        C  0.71351267  0.31401705  0.35226010     0.24900
C363        C  0.72358353  0.27550604  0.32452549    -0.23100
C364        C  0.70106622  0.23053428  0.33077237     0.19800
F365        F  0.71079966  0.19290339  0.30435291    -0.13000
F366        F  0.64583806  0.18102781  0.36983300    -0.15400
F367        F  0.73514530  0.35768714  0.34662891    -0.15400
F368        F  0.67066684  0.34582309  0.41174240    -0.13000
C369        C  0.14022722  0.59898985  0.33909662     0.25000
C370        C  0.12664940  0.64484768  0.32345448    -0.23100
C371        C  0.08502541  0.66765606  0.33993638     0.19900
C372        C  0.05697633  0.64439278  0.37117656     0.24900
C373        C  0.07105225  0.59872626  0.38690854    -0.23100
C374        C  0.11290009  0.57638954  0.37078886     0.19800
F375        F  0.12704295  0.53230244  0.38571718    -0.13000
F376        F  0.18052626  0.57634595  0.32420006    -0.15400
F377        F  0.01608982  0.66611417  0.38590672    -0.15400
F378        F  0.07079965  0.71165359  0.32488086    -0.13000
C379        C  0.08096283  0.63359628  0.67358888     0.25000
C380        C  0.13073740  0.64284394  0.67028353    -0.23100
C381        C  0.15656667  0.62696109  0.63441839     0.19900
C382        C  0.13335819  0.60017929  0.60294761     0.24900
C383        C  0.08370514  0.59008394  0.60649642    -0.23100
C384        C  0.05739537  0.60781300  0.64157360     0.19800
F385        F  0.00911185  0.59939222  0.64500117    -0.13000
F386        F  0.05544919  0.64920279  0.70796706    -0.15400
F387        F  0.15946268  0.58318486  0.56942634    -0.15400
F388        F  0.20470033  0.63547976  0.63078216    -0.13000
C389        C  0.31443371  0.68852967  0.38423042     0.25000
C390        C  0.33745156  0.73350705  0.38876276    -0.23100
C391        C  0.32453940  0.77209129  0.36158278     0.19900
C392        C  0.28935447  0.76552204  0.32996123     0.24900
C393        C  0.26678287  0.72035012  0.32527548    -0.23100
C394        C  0.27939273  0.68200642  0.35267498     0.19800
F395        F  0.25831203  0.63795893  0.34828531    -0.13000
F396        F  0.32665254  0.65072611  0.40992925    -0.15400
F397        F  0.27816577  0.80277253  0.30331144    -0.15400
F398        F  0.34635040  0.81585721  0.36554905    -0.13000
C399        C  0.33182875  0.68051293  0.62717024     0.25000
C400        C  0.33811220  0.72749534  0.61073822    -0.23100
C401        C  0.31160371  0.76610202  0.62828900     0.19900
C402        C  0.27873723  0.75768223  0.66153348     0.24900
C403        C  0.27299409  0.71079970  0.67846270    -0.23100
C404        C  0.30012247  0.67230865  0.66124519     0.19800
F405        F  0.29450626  0.62644513  0.67628659    -0.13000
F406        F  0.35679650  0.64269669  0.61027589    -0.15400
F407        F  0.25312723  0.79543677  0.67778430    -0.15400
F408        F  0.31783804  0.81189328  0.61331169    -0.13000
C409        C  0.73353074  0.36393784  0.16704774     0.25000
C410        C  0.77957439  0.34790296  0.18175478    -0.23100
C411        C  0.82086104  0.36255510  0.15812437     0.19900
C412        C  0.81675883  0.39398175  0.12333525     0.24900
C413        C  0.77153300  0.41198632  0.11104022    -0.23100
C414        C  0.72990730  0.39601074  0.13237209     0.19800
F415        F  0.68565596  0.41282445  0.12045289    -0.13000
F416        F  0.69161722  0.35084434  0.18612963    -0.15400
F417        F  0.85741875  0.40891029  0.10279186    -0.15400
F418        F  0.86601670  0.34870895  0.17036062    -0.13000
C419        C  0.82408956  0.39136670  0.87985376     0.25000
C420        C  0.77934185  0.41231175  0.88960134    -0.23100
C421        C  0.73852165  0.40008904  0.86561216     0.19900
C422        C  0.74261796  0.36902896  0.83059997     0.24900
C423        C  0.78833188  0.34963631  0.81873687    -0.23100
C424        C  0.82859843  0.36034066  0.84507567     0.19800
F425        F  0.87335545  0.34269312  0.83572563    -0.13000
F426        F  0.86399436  0.40282826  0.90291662    -0.15400
F427        F  0.70172465  0.36024605  0.80836891    -0.15400
F428        F  0.69475799  0.41978367  0.87531646    -0.13000
C429        C  0.39470817  0.28286174  0.64259786     0.25000
C430        C  0.41604702  0.24428268  0.62044733    -0.23100
C431        C  0.40393349  0.19670571  0.63144115     0.19900
C432        C  0.37198613  0.18752340  0.66484503     0.24900
C433        C  0.35248162  0.22571713  0.68961167    -0.23100
C434        C  0.36315553  0.27395952  0.67685507     0.19800
F435        F  0.34377206  0.31297389  0.69656050    -0.13000
F436        F  0.40519570  0.32927422  0.63145103    -0.15400
F437        F  0.36151656  0.14056813  0.67413249    -0.15400
F438        F  0.42364520  0.15886983  0.60987759    -0.13000
C439        C  0.43122893  0.12267133  0.87298893     0.25000
C440        C  0.40875006  0.08365061  0.89373857    -0.23100
C441        C  0.36202971  0.06969566  0.88139443     0.19900
C442        C  0.33790960  0.09460376  0.84867244     0.24900
C443        C  0.35997192  0.13428494  0.82814627    -0.23100
C444        C  0.40699499  0.14812848  0.84079518     0.19800
F445        F  0.42918434  0.18711045  0.82292932    -0.13000
F446        F  0.47674708  0.13613645  0.88409485    -0.15400
F447        F  0.29366063  0.07886289  0.83615118    -0.15400
F448        F  0.34025475  0.03128755  0.90051491    -0.13000
C449        C  0.40342004  0.18800827  0.38240785     0.25000
C450        C  0.40904123  0.23538139  0.39723808    -0.23100
C451        C  0.38284423  0.27308987  0.37808036     0.19900
C452        C  0.35404637  0.26425013  0.34225579     0.24900
C453        C  0.35213131  0.21728781  0.32415131    -0.23100
C454        C  0.37467111  0.17887150  0.34680052     0.19800
F455        F  0.37023081  0.13228975  0.33354814    -0.13000
F456        F  0.42725867  0.15076049  0.40161782    -0.15400
F457        F  0.32717633  0.30159226  0.32705502    -0.15400
F458        F  0.38624680  0.31884511  0.39350964    -0.13000
C459        C  0.36665021  0.06506279  0.13220605     0.25000
C460        C  0.41163777  0.08140547  0.11700745    -0.23100
C461        C  0.43210971  0.12337289  0.13437113     0.19900
C462        C  0.40799480  0.14877785  0.16655253     0.24900
C463        C  0.36289380  0.13258742  0.18189473    -0.23100
C464        C  0.34229436  0.09062391  0.16433705     0.19800
F465        F  0.29920227  0.07377132  0.17902015    -0.13000
F466        F  0.34661682  0.02420430  0.11607999    -0.15400
F467        F  0.42802139  0.19009027  0.18180417    -0.15400
F468        F  0.47531900  0.13994355  0.11971784    -0.13000
C469        C  0.63699736  0.73533878  0.33217987     0.25000
C470        C  0.65001958  0.78190223  0.31653126    -0.23100
C471        C  0.63251578  0.82273385  0.33922815     0.19900
C472        C  0.60114080  0.81749436  0.37398676     0.24900
C473        C  0.58710125  0.77136449  0.38794153    -0.23100
C474        C  0.60619252  0.73047739  0.36747642     0.19800
F475        F  0.59329057  0.68541893  0.38078777    -0.13000
F476        F  0.65275367  0.69383324  0.31406973    -0.15400
F477        F  0.58339109  0.85769132  0.39343162    -0.15400
F478        F  0.64456617  0.86834437  0.32674948    -0.13000
C479        C  0.62872403  0.94098181  0.14367274     0.25000
C480        C  0.60332822  0.91656017  0.11149388    -0.23100
C481        C  0.60530202  0.86568354  0.10980937     0.19900
C482        C  0.63101089  0.83955471  0.14066199     0.24900
C483        C  0.65480374  0.86392198  0.17366914    -0.23100
C484        C  0.65386515  0.91473753  0.17490129     0.19800
F485        F  0.67622894  0.93878002  0.20694811    -0.13000
F486        F  0.62847422  0.99014165  0.14509587    -0.15400
F487        F  0.63139787  0.79041194  0.13915672    -0.15400
F488        F  0.58122741  0.84136640  0.07887716    -0.13000
C489        C  0.69861094  0.69615463  0.16206688     0.25000
C490        C  0.73496236  0.72678320  0.17797127    -0.23100
C491        C  0.78144996  0.72515252  0.15950044     0.19900
C492        C  0.79150933  0.69265440  0.12623001     0.24900
C493        C  0.75492610  0.66220258  0.11060937    -0.23100
C494        C  0.70850266  0.66439015  0.12864513     0.19800
F495        F  0.67266893  0.63550669  0.11370958    -0.13000
F496        F  0.65297294  0.69781899  0.17818223    -0.15400
F497        F  0.83693574  0.69029530  0.10971352    -0.15400
F498        F  0.81728929  0.75407410  0.17437923    -0.13000
C499        C  0.58812405  0.82301344  0.63100295     0.25000
C500        C  0.58438016  0.77759856  0.61161213    -0.23100
C501        C  0.61353336  0.73937090  0.62620657     0.19900
C502        C  0.64433880  0.74559834  0.66124636     0.24900
C503        C  0.64547513  0.79021287  0.68347787    -0.23100
C504        C  0.61907888  0.82962536  0.66577219     0.19800
F505        F  0.62245300  0.87475178  0.68261326    -0.13000
F506        F  0.56096595  0.86082504  0.61670599    -0.15400
F507        F  0.67432179  0.70840767  0.67145205    -0.15400
F508        F  0.61159365  0.69558693  0.60671480    -0.13000
C509        C  0.64030168  0.91526257  0.82393954     0.25000
C510        C  0.64899768  0.86549200  0.82906840    -0.23100
C511        C  0.63294614  0.84169981  0.86602990     0.19900
C512        C  0.60720170  0.86727459  0.89713837     0.24900
C513        C  0.59823544  0.91727049  0.89211878    -0.23100
C514        C  0.61588176  0.94122053  0.85557933     0.19800
F515        F  0.60880571  0.98958777  0.85028887    -0.13000
F516        F  0.65505535  0.93849473  0.78796545    -0.15400
F517        F  0.59006432  0.84308849  0.93179329    -0.15400
F518        F  0.64048861  0.79337779  0.87114270    -0.13000
C519        C  0.78714443  0.69415545  0.87198818     0.25000
C520        C  0.75246721  0.66061989  0.88621655    -0.23100
C521        C  0.70668750  0.65988929  0.86684874     0.19900
C522        C  0.69544307  0.69238457  0.83394981     0.24900
C523        C  0.72988744  0.72632146  0.81968856    -0.23100
C524        C  0.77587906  0.72696524  0.83909430     0.19800
F525        F  0.81008745  0.75894082  0.82584754    -0.13000
F526        F  0.83190352  0.69483266  0.88981149    -0.15400
F527        F  0.65007998  0.69201133  0.81733483    -0.15400
F528        F  0.67255879  0.62799696  0.88037839    -0.13000
C529        C  0.29687512  0.26794474  0.86668669     0.25000
C530        C  0.26578043  0.26235484  0.83177239    -0.23100
C531        C  0.22075317  0.28609613  0.83144816     0.19900
C532        C  0.20796212  0.31700919  0.86498529     0.24900
C533        C  0.24051587  0.32498584  0.89868688    -0.23100
C534        C  0.28441434  0.29915269  0.89988904     0.19800
F535        F  0.31628847  0.30612952  0.93218477    -0.13000
F536        F  0.34028707  0.24473880  0.86766902    -0.15400
F537        F  0.16479452  0.34067372  0.86386871    -0.15400
F538        F  0.18983076  0.28017373  0.79828572    -0.13000
C539        C  0.29035748  0.30215572  0.11221640     0.25000
C540        C  0.25103490  0.33410196  0.11728064    -0.23100
C541        C  0.22269852  0.33140241  0.15456472     0.19900
C542        C  0.23477627  0.29841780  0.18693349     0.24900
C543        C  0.27439240  0.26696322  0.18180596    -0.23100
C544        C  0.30169252  0.26859820  0.14410388     0.19800
F545        F  0.34046173  0.23887007  0.13883410    -0.13000
F546        F  0.31846997  0.30432167  0.07669386    -0.15400
F547        F  0.20791565  0.29706151  0.22322234    -0.15400
F548        F  0.18389706  0.36116658  0.15974876    -0.13000
C549        C  0.26727693  0.60618594  0.13151997     0.25000
C550        C  0.22716109  0.58484329  0.11179989    -0.23100
C551        C  0.18053805  0.59757255  0.12533621     0.19900
C552        C  0.17396198  0.62912733  0.15952245     0.24900
C553        C  0.21398056  0.64731768  0.18257368    -0.23100
C554        C  0.26101193  0.63730529  0.16637581     0.19800
F555        F  0.30128125  0.65790325  0.18270813    -0.13000
F556        F  0.31275189  0.59581748  0.11764812    -0.15400
F557        F  0.12791729  0.64028290  0.17133333    -0.15400
F558        F  0.14115262  0.57818115  0.10604189    -0.13000
C559        C  0.16316931  0.61356720  0.83501766     0.25000
C560        C  0.20384027  0.63715086  0.81676865    -0.23100
C561        C  0.24845962  0.63369333  0.83881688     0.19900
C562        C  0.25341208  0.60272528  0.87404921     0.24900
C563        C  0.21391625  0.57570145  0.88880016    -0.23100
C564        C  0.16852671  0.58222199  0.86983502     0.19800
F565        F  0.12941590  0.55775411  0.88487391    -0.13000
F566        F  0.11802444  0.62022128  0.81884356    -0.15400
F567        F  0.29703599  0.59868797  0.89366737    -0.15400
F568        F  0.28689326  0.66164604  0.82810565    -0.13000
C569        C  0.07077966  0.84404743  0.22238510     0.25000
C570        C  0.07960026  0.87962579  0.25330793    -0.23100
C571        C  0.11553323  0.87112416  0.28417088     0.19900
C572        C  0.14265498  0.82824988  0.28378831     0.24900
C573        C  0.13390869  0.79236826  0.25295998    -0.23100
C574        C  0.09722422  0.80064958  0.22247056     0.19800
F575        F  0.08549076  0.76607260  0.19364828    -0.13000
F576        F  0.03521509  0.85044401  0.19302040    -0.15400
F577        F  0.17838925  0.82275493  0.31303973    -0.15400
F578        F  0.12538739  0.90498757  0.31420618    -0.13000
C579        C  0.20572108  0.09520747  0.28266993     0.25000
C580        C  0.21299529  0.13248876  0.25250560    -0.23100
C581        C  0.17583757  0.14311889  0.22318619     0.19900
C582        C  0.13263715  0.11672039  0.22380599     0.24900
C583        C  0.12524775  0.08008905  0.25443523    -0.23100
C584        C  0.16206731  0.06975513  0.28395408     0.19800
F585        F  0.15644205  0.03381084  0.31323651    -0.13000
F586        F  0.24135554  0.08236414  0.31030534    -0.15400
F587        F  0.09735375  0.12808240  0.19531176    -0.15400
F588        F  0.18035534  0.18025045  0.19493374    -0.13000
C589        C  0.88319282  0.12977069  0.28753061     0.25000
C590        C  0.92340407  0.12612145  0.26018140    -0.23100
C591        C  0.93510498  0.16534904  0.23348302     0.19900
C592        C  0.90633242  0.20713635  0.23328964     0.24900
C593        C  0.86470713  0.21004556  0.25916825    -0.23100
C594        C  0.85397059  0.17133953  0.28695650     0.19800
F595        F  0.81418221  0.17279966  0.31238410    -0.13000
F596        F  0.87096370  0.09218902  0.31345715    -0.15400
F597        F  0.91982526  0.24523011  0.20847903    -0.15400
F598        F  0.97506097  0.16357574  0.20821492    -0.13000
C599        C  0.83031023  0.85872265  0.28478278     0.25000
C600        C  0.79602697  0.86507512  0.25190518    -0.23100
C601        C  0.80360124  0.90218932  0.22168147     0.19900
C602        C  0.84463706  0.93159621  0.22383663     0.24900
C603        C  0.87908623  0.92476062  0.25628627    -0.23100
C604        C  0.87119806  0.88846740  0.28708741     0.19800
F605        F  0.90400923  0.88045780  0.31856318    -0.13000
F606        F  0.82532640  0.82259035  0.31395646    -0.15400
F607        F  0.85010836  0.96759106  0.19456211    -0.15400
F608        F  0.77077354  0.91119273  0.19051653    -0.13000
C609        C  0.17297386  0.14104490  0.78063574     0.25000
C610        C  0.21133447  0.13269627  0.75198249    -0.23100
C611        C  0.20549096  0.09732974  0.72004251     0.19900
C612        C  0.16237567  0.07083377  0.71711549     0.24900
C613        C  0.12473055  0.07843344  0.74657300    -0.23100
C614        C  0.13036212  0.11401720  0.77812605     0.19800
F615        F  0.09397451  0.12348288  0.80610130    -0.13000
F616        F  0.17586203  0.17641211  0.81042887    -0.15400
F617        F  0.15824705  0.03639006  0.68656155    -0.15400
F618        F  0.24208351  0.08713556  0.69249605    -0.13000
C619        C  0.10209520  0.79560092  0.71313876     0.25000
C620        C  0.13928046  0.78766523  0.74303860    -0.23100
C621        C  0.15035466  0.82454865  0.77227393     0.19900
C622        C  0.12363174  0.86775768  0.77259165     0.24900
C623        C  0.08570624  0.87510280  0.74340598    -0.23100
C624        C  0.07581211  0.83902613  0.71313545     0.19800
F625        F  0.03923775  0.84488802  0.68465462    -0.13000
F626        F  0.08950845  0.76049452  0.68510402    -0.15400
F627        F  0.13550267  0.90289875  0.80085210    -0.15400
F628        F  0.18761216  0.81912273  0.80009425    -0.13000
C629        C  0.80453367  0.89820069  0.78519946     0.25000
C630        C  0.79325570  0.86495509  0.75273475    -0.23100
C631        C  0.82714276  0.85784291  0.71959468     0.19900
C632        C  0.87050295  0.88400803  0.71844880     0.24900
C633        C  0.88167459  0.91710811  0.75087638    -0.23100
C634        C  0.84847111  0.92349116  0.78453962     0.19800
F635        F  0.85773738  0.95555374  0.81620763    -0.13000
F636        F  0.77239656  0.90784776  0.81686637    -0.15400
F637        F  0.90227556  0.87581454  0.68616117    -0.15400
F638        F  0.81914594  0.82444411  0.68877367    -0.13000
C639        C  0.88777203  0.12593972  0.71823488     0.25000
C640        C  0.92223976  0.11708328  0.75034262    -0.23100
C641        C  0.92806088  0.15133751  0.78294049     0.19900
C642        C  0.90135411  0.19445131  0.78253683     0.24900
C643        C  0.86691384  0.20356721  0.75025892    -0.23100
C644        C  0.85982509  0.16830649  0.71860024     0.19800
F645        F  0.82490598  0.17396234  0.68856816    -0.13000
F646        F  0.88023802  0.09298823  0.68692611    -0.15400
F647        F  0.91082528  0.22798521  0.81292547    -0.15400
F648        F  0.96108860  0.14408097  0.81438366    -0.13000
loop_ 
_geom_bond_atom_site_label_1 
_geom_bond_atom_site_label_2 
_geom_bond_distance 
_geom_bond_site_symmetry_2 
_ccdc_geom_bond_type 
O1           Ni9   1.925   1_655  S
O1           C11   1.283       .  A
O2           Ni9   1.930   1_545  S
O2           C12   1.284       .  A
O3           Ni9   1.913       .  S
O3           C13   1.280       .  A
O4           Ni9   1.916   1_645  S
O4           C14   1.281       .  A
O5          Ni10   1.917   1_645  S
O5           C14   1.282       .  A
O6          Ni10   1.923       .  S
O6           C13   1.283       .  A
O7          Ni10   1.910   1_545  S
O7           C12   1.280       .  A
O8          Ni10   1.917   1_655  S
O8           C11   1.281       .  A
Ni9         Ni10   2.388       .  S
C11         C633   1.484       .  S
C12         C613   1.480       .  S
C13         C623   1.478       .  S
C14         C640   1.479       .  S
O15         Ni23   1.917   1_655  S
O15          C25   1.281       .  A
O16         Ni23   1.923   1_565  S
O16          C26   1.283       .  A
O17         Ni23   1.912   1_665  S
O17          C27   1.280       .  A
O18         Ni23   1.912       .  S
O18          C28   1.280       .  A
O19         Ni24   1.921       .  S
O19          C28   1.283       .  A
O20         Ni24   1.921   1_665  S
O20          C27   1.282       .  A
O21         Ni24   1.912   1_565  S
O21          C26   1.280       .  A
O22         Ni24   1.917   1_655  S
O22          C25   1.280       .  A
Ni23        Ni24   2.389       .  S
C25         C590   1.474       .  S
C26         C570   1.479       .  S
C27         C603   1.479       .  S
C28         C583   1.476       .  S
N29          C34   1.351       .  A
N29          C33   1.352   1_554  A
N29          H61   1.037       .  S
N30          C37   1.352       .  A
N30          C38   1.351       .  A
N31          C36   1.354       .  A
N31          C35   1.353   1_554  A
N31          H62   1.037       .  S
N32          C39   1.352       .  A
N32          C40   1.352       .  A
C33          C41   1.386       .  A
C33          C49   1.413       .  A
C34          C50   1.416       .  A
C34          C42   1.389       .  A
C35          C43   1.386       .  A
C35          C52   1.414       .  A
C36          C51   1.418       .  A
C36          C44   1.388       .  A
C37          C49   1.415       .  A
C37          C45   1.387       .  A
C38          C52   1.411       .  A
C38          C46   1.385       .  A
C39          C47   1.387       .  A
C39          C50   1.416       .  A
C40          C48   1.387       .  A
C40          C51   1.415       .  A
C41          C42   1.377   1_556  A
C41          H53   1.082       .  S
C42          H54   1.082       .  S
C43          C44   1.376   1_556  A
C43          H55   1.082       .  S
C44          H56   1.082       .  S
C45          C46   1.371       .  A
C45          H57   1.082       .  S
C46          H58   1.082       .  S
C47          C48   1.372       .  A
C47          H59   1.082       .  S
C48          H60   1.081       .  S
C49         C533   1.486       .  S
C50         C540   1.488       .  S
C51         C550   1.488       .  S
C52         C563   1.484       .  S
C63          C64   1.536       .  S
C63          C69   1.539       .  S
C63          C67   1.551       .  S
C63         C503   1.542       .  S
C64          H71   1.085       .  S
C64          C65   1.370       .  D
C65          C66   1.543       .  S
C65         C630   1.495       .  S
C66          C70   1.533       .  S
C66          C68   1.535       .  S
C66          H72   1.109       .  S
C67          H73   1.081       .  S
C67          C68   1.371       .  D
C68         C523   1.489       .  S
C69          H74   1.086       .  S
C69          C70   1.359       .  D
C70         C510   1.471       .  S
C75          C76   1.540       .  S
C75          C81   1.537       .  S
C75          C79   1.550       .  S
C75         C470   1.543       .  S
C76          H83   1.087       .  S
C76          C77   1.360       .  D
C77          C78   1.532       .  S
C77         C483   1.472       .  S
C78          C82   1.544       .  S
C78          C80   1.535       .  S
C78          H84   1.110       .  S
C79          H85   1.077       .  S
C79          C80   1.368       .  D
C80         C490   1.487       .  S
C81          H86   1.086       .  S
C81          C82   1.369       .  D
C82         C600   1.492       .  S
C87          C88   1.543       .  S
C87          C93   1.533       .  S
C87          C91   1.547       .  S
C87         C453   1.535       .  S
C88          H95   1.086       .  S
C88          C89   1.364       .  D
C89          C90   1.535       .  S
C89         C463   1.484       .  S
C90          C94   1.540       .  S
C90          C92   1.533       .  S
C90          H96   1.110       .  S
C91          H97   1.080       .  S
C91          C92   1.365       .  D
C92         C543   1.473       .  S
C93          H98   1.086       .  S
C93          C94   1.367       .  D
C94         C580   1.487       .  S
C99         C100   1.537       .  S
C99         C105   1.539       .  S
C99         C103   1.550       .  S
C99         C433   1.537       .  S
C100        H107   1.086       .  S
C100        C101   1.367       .  D
C101        C102   1.543       .  S
C101        C610   1.490       .  S
C102        C106   1.538       .  S
C102        C104   1.529       .  S
C102        H108   1.109       .  S
C103        H109   1.079       .  S
C103        C104   1.367       .  D
C104        C530   1.473       .  S
C105        H110   1.086       .  S
C105        C106   1.361       .  D
C106        C443   1.489       .  S
N111        C116   1.352       .  A
N111        C115   1.352   1_554  A
N111        H143   1.039       .  S
N112        C119   1.352   1_545  A
N112        C120   1.351       .  A
N113        C118   1.354       .  A
N113        C117   1.354   1_554  A
N113        H144   1.038       .  S
N114        C121   1.352       .  A
N114        C122   1.352   1_565  A
C115        C123   1.387       .  A
C115        C131   1.414       .  A
C116        C132   1.412       .  A
C116        C124   1.387       .  A
C117        C125   1.387       .  A
C117        C134   1.416       .  A
C118        C133   1.417       .  A
C118        C126   1.388       .  A
C119        C131   1.415       .  A
C119        C127   1.387       .  A
C120        C134   1.411       .  A
C120        C128   1.385   1_545  A
C121        C129   1.386       .  A
C121        C132   1.415       .  A
C122        C130   1.386   1_545  A
C122        C133   1.414       .  A
C123        C124   1.375   1_556  A
C123        H135   1.082       .  S
C124        H136   1.082       .  S
C125        C126   1.377   1_556  A
C125        H137   1.082       .  S
C126        H138   1.082       .  S
C127        C128   1.373       .  A
C127        H139   1.082       .  S
C128        H140   1.082   1_565  S
C129        C130   1.374       .  A
C129        H141   1.082       .  S
C130        H142   1.082   1_565  S
C131        C513   1.491       .  S
C132        C480   1.487       .  S
C133        C460   1.486       .  S
C134        C440   1.485       .  S
N145        C150   1.356       .  A
N145        C149   1.355   1_556  A
N145        H177   1.039       .  S
N146        C153   1.352       .  A
N146        C154   1.353       .  A
N147        C152   1.351   1_554  A
N147        C151   1.352       .  A
N147        H178   1.037       .  S
N148        C155   1.352       .  A
N148        C156   1.351       .  A
C149        C157   1.387       .  A
C149        C165   1.418       .  A
C150        C166   1.419       .  A
C150        C158   1.387       .  A
C151        C159   1.387       .  A
C151        C168   1.413       .  A
C152        C167   1.413       .  A
C152        C160   1.387       .  A
C153        C165   1.414       .  A
C153        C161   1.387       .  A
C154        C168   1.416       .  A
C154        C162   1.386       .  A
C155        C163   1.386       .  A
C155        C166   1.412       .  A
C156        C164   1.387       .  A
C156        C167   1.415       .  A
C157        C158   1.377   1_554  A
C157        H169   1.082       .  S
C158        H170   1.082       .  S
C159        C160   1.377   1_554  A
C159        H171   1.082       .  S
C160        H172   1.082       .  S
C161        C162   1.372       .  A
C161        H173   1.082       .  S
C162        H174   1.082       .  S
C163        C164   1.372       .  A
C163        H175   1.082       .  S
C164        H176   1.082       .  S
C165        C493   1.487       .  S
C166        C520   1.490       .  S
C167        C420   1.481       .  S
C168        C413   1.486       .  S
N179        C184   1.353       .  A
N179        C183   1.354       .  A
N179        H211   1.037       .  S
N180        C187   1.352       .  A
N180        C188   1.352       .  A
N181        C186   1.355       .  A
N181        C185   1.355       .  A
N181        H212   1.035       .  S
N182        C189   1.354       .  A
N182        C190   1.353       .  A
C183        C191   1.387       .  A
C183        C199   1.416       .  A
C184        C200   1.416       .  A
C184        C192   1.387       .  A
C185        C193   1.386       .  A
C185        C202   1.418       .  A
C186        C201   1.421       .  A
C186        C194   1.388       .  A
C187        C199   1.415       .  A
C187        C195   1.387       .  A
C188        C202   1.415       .  A
C188        C196   1.386       .  A
C189        C197   1.385       .  A
C189        C200   1.415       .  A
C190        C198   1.389       .  A
C190        C201   1.420       .  A
C191        C192   1.376       .  A
C191        H203   1.082       .  S
C192        H204   1.082       .  S
C193        C194   1.377       .  A
C193        H205   1.082       .  S
C194        H206   1.082       .  S
C195        C196   1.370       .  A
C195        H207   1.082       .  S
C196        H208   1.082       .  S
C197        C198   1.371       .  A
C197        H209   1.082       .  S
C198        H210   1.081       .  S
C199        C400   1.486       .  S
C200        C390   1.488       .  S
C201        C473   1.492       .  S
C202        C500   1.489       .  S
C213        C214   1.540       .  S
C213        C219   1.537       .  S
C213        C217   1.550       .  S
C213        C560   1.537       .  S
C214        H221   1.086       .  S
C214        C215   1.359       .  D
C215        C216   1.530       .  S
C215        C380   1.467       .  S
C216        C220   1.537       .  S
C216        C218   1.532       .  S
C216        H222   1.111       .  S
C217        H223   1.082       .  S
C217        C218   1.368       .  D
C218        C403   1.481       .  S
C219        H224   1.086       .  S
C219        C220   1.369       .  D
C220        C620   1.486       .  S
C225        C226   1.539       .  S
C225        C231   1.541       .  S
C225        C229   1.546       .  S
C225        C553   1.540       .  S
C226        H233   1.085       .  S
C226        C227   1.371       .  D
C227        C228   1.542       .  S
C227        C573   1.493       .  S
C228        C232   1.532       .  S
C228        C230   1.536       .  S
C228        H234   1.109       .  S
C229        H235   1.079       .  S
C229        C230   1.365       .  D
C230        C393   1.477       .  S
C231        H236   1.087       .  S
C231        C232   1.362       .  D
C232        C370   1.479       .  S
C237        C238   1.540       .  S
C237        C243   1.538       .  S
C237        C241   1.549       .  S
C237        C410   1.541       .  S
C238        H245   1.086       .  S
C238        C239   1.369       .  D
C239        C240   1.537       .  S
C239        C593   1.486       .  S
C240        C244   1.534       .  S
C240        C242   1.527       .  S
C240        H246   1.109       .  S
C241        H247   1.077       .  S
C241        C242   1.364       .  D
C242        C363   1.469       .  S
C243        H248   1.086       .  S
C243        C244   1.363       .  D
C244        C350   1.483       .  S
C249        C250   1.538       .  S
C249        C255   1.536       .  S
C249        C253   1.549       .  S
C249        C423   1.537       .  S
C250        H257   1.087       .  S
C250        C251   1.360       .  D
C251        C252   1.532       .  S
C251        C330   1.481       .  S
C252        C256   1.544       .  S
C252        C254   1.533       .  S
C252        H258   1.109       .  S
C253        H259   1.078       .  S
C253        C254   1.367       .  D
C254        C343   1.475       .  S
C255        H260   1.085       .  S
C255        C256   1.368       .  D
C256        C643   1.490       .  S
N261        C266   1.351       .  A
N261        C265   1.351       .  A
N261        H293   1.042       .  S
N262        C269   1.352   1_655  A
N262        C270   1.350       .  A
N263        C268   1.353       .  A
N263        C267   1.350       .  A
N263        H294   1.042       .  S
N264        C271   1.348       .  A
N264        C272   1.349   1_455  A
C265        C273   1.385       .  A
C265        C281   1.409       .  A
C266        C282   1.414       .  A
C266        C274   1.388       .  A
C267        C275   1.387       .  A
C267        C284   1.412       .  A
C268        C283   1.414       .  A
C268        C276   1.387       .  A
C269        C281   1.411       .  A
C269        C277   1.385       .  A
C270        C284   1.412       .  A
C270        C278   1.387       .  A
C271        C279   1.388       .  A
C271        C282   1.412       .  A
C272        C280   1.385   1_655  A
C272        C283   1.408       .  A
C273        C274   1.374       .  A
C273        H285   1.081       .  S
C274        H286   1.082       .  S
C275        C276   1.375       .  A
C275        H287   1.082       .  S
C276        H288   1.082       .  S
C277        C278   1.370   1_455  A
C277        H289   1.082       .  S
C278        H290   1.082       .  S
C279        C280   1.373       .  A
C279        H291   1.082       .  S
C280        H292   1.082       .  S
C281        C373   1.483       .  S
C282        C383   1.481       .  S
C283        C333   1.481       .  S
C284        C353   1.479       .  S
N295        C300   1.351       .  A
N295        C299   1.352       .  A
N295        H327   1.038       .  S
N296        C303   1.354       .  A
N296        C304   1.352       .  A
N297        C302   1.355       .  A
N297        C301   1.352       .  A
N297        H328   1.037       .  S
N298        C305   1.350       .  A
N298        C306   1.350       .  A
C299        C307   1.388       .  A
C299        C315   1.415       .  A
C300        C316   1.411       .  A
C300        C308   1.386       .  A
C301        C309   1.389       .  A
C301        C318   1.417       .  A
C302        C317   1.413       .  A
C302        C310   1.385       .  A
C303        C315   1.418       .  A
C303        C311   1.386       .  A
C304        C318   1.416       .  A
C304        C312   1.387       .  A
C305        C313   1.386       .  A
C305        C316   1.410       .  A
C306        C314   1.387       .  A
C306        C317   1.411       .  A
C307        C308   1.375       .  A
C307        H319   1.082       .  S
C308        H320   1.082       .  S
C309        C310   1.374       .  A
C309        H321   1.082       .  S
C310        H322   1.082       .  S
C311        C312   1.373       .  A
C311        H323   1.082       .  S
C312        H324   1.082       .  S
C313        C314   1.370       .  A
C313        H325   1.082       .  S
C314        H326   1.082       .  S
C315        C340   1.492       .  S
C316        C360   1.478       .  S
C317        C450   1.482       .  S
C318        C430   1.484       .  S
C329        C330   1.407       .  A
C329        C334   1.402       .  A
C329        F336   1.358       .  S
C330        C331   1.408       .  A
C331        C332   1.394       .  A
C331        F338   1.358       .  S
C332        C333   1.402       .  A
C332        F337   1.358       .  S
C333        C334   1.404       .  A
C334        F335   1.357       .  S
C339        C340   1.408       .  A
C339        C344   1.401       .  A
C339        F346   1.358       .  S
C340        C341   1.407       .  A
C341        C342   1.398       .  A
C341        F348   1.358       .  S
C342        C343   1.403       .  A
C342        F347   1.357       .  S
C343        C344   1.403       .  A
C344        F345   1.358       .  S
C349        C350   1.408       .  A
C349        C354   1.397       .  A
C349        F356   1.357       .  S
C350        C351   1.411       .  A
C351        C352   1.394       .  A
C351        F358   1.358       .  S
C352        C353   1.400       .  A
C352        F357   1.358       .  S
C353        C354   1.402       .  A
C354        F355   1.358       .  S
C359        C360   1.405       .  A
C359        C364   1.400       .  A
C359        F366   1.357       .  S
C360        C361   1.402       .  A
C361        C362   1.394       .  A
C361        F368   1.358       .  S
C362        C363   1.403       .  A
C362        F367   1.357       .  S
C363        C364   1.403       .  A
C364        F365   1.357       .  S
C369        C370   1.405       .  A
C369        C374   1.393       .  A
C369        F376   1.358       .  S
C370        C371   1.407       .  A
C371        C372   1.402       .  A
C371        F378   1.358       .  S
C372        C373   1.405       .  A
C372        F377   1.358       .  S
C373        C374   1.402       .  A
C374        F375   1.358       .  S
C379        C380   1.402       .  A
C379        C384   1.396       .  A
C379        F386   1.358       .  S
C380        C381   1.402       .  A
C381        C382   1.394       .  A
C381        F388   1.355       .  S
C382        C383   1.404       .  A
C382        F387   1.358       .  S
C383        C384   1.406       .  A
C384        F385   1.358       .  S
C389        C390   1.404       .  A
C389        C394   1.398       .  A
C389        F396   1.358       .  S
C390        C391   1.406       .  A
C391        C392   1.402       .  A
C391        F398   1.357       .  S
C392        C393   1.404       .  A
C392        F397   1.357       .  S
C393        C394   1.404       .  A
C394        F395   1.357       .  S
C399        C400   1.404       .  A
C399        C404   1.398       .  A
C399        F406   1.358       .  S
C400        C401   1.404       .  A
C401        C402   1.400       .  A
C401        F408   1.357       .  S
C402        C403   1.406       .  A
C402        F407   1.358       .  S
C403        C404   1.407       .  A
C404        F405   1.358       .  S
C409        C410   1.422       .  A
C409        C414   1.403       .  A
C409        F416   1.351       .  S
C410        C411   1.418       .  A
C411        C412   1.395       .  A
C411        F418   1.358       .  S
C412        C413   1.397       .  A
C412        F417   1.358       .  S
C413        C414   1.400       .  A
C414        F415   1.358       .  S
C419        C420   1.396       .  A
C419        C424   1.395       .  A
C419        F426   1.358       .  S
C420        C421   1.399       .  A
C421        C422   1.400       .  A
C421        F428   1.358       .  S
C422        C423   1.419       .  A
C422        F427   1.351       .  S
C423        C424   1.419       .  A
C424        F425   1.359       .  S
C429        C430   1.401       .  A
C429        C434   1.403       .  A
C429        F436   1.358       .  S
C430        C431   1.397       .  A
C431        C432   1.391       .  A
C431        F438   1.358       .  S
C432        C433   1.416       .  A
C432        F437   1.359       .  S
C433        C434   1.420       .  A
C434        F435   1.352       .  S
C439        C440   1.402       .  A
C439        C444   1.398       .  A
C439        F446   1.358       .  S
C440        C441   1.403       .  A
C441        C442   1.401       .  A
C441        F448   1.357       .  S
C442        C443   1.408       .  A
C442        F447   1.357       .  S
C443        C444   1.413       .  A
C444        F445   1.358       .  S
C449        C450   1.399       .  A
C449        C454   1.396       .  A
C449        F456   1.358       .  S
C450        C451   1.399       .  A
C451        C452   1.400       .  A
C451        F458   1.358       .  S
C452        C453   1.418       .  A
C452        F457   1.353       .  S
C453        C454   1.416       .  A
C454        F455   1.359       .  S
C459        C460   1.405       .  A
C459        C464   1.402       .  A
C459        F466   1.357       .  S
C460        C461   1.403       .  A
C461        C462   1.398       .  A
C461        F468   1.358       .  S
C462        C463   1.408       .  A
C462        F467   1.358       .  S
C463        C464   1.406       .  A
C464        F465   1.358       .  S
C469        C470   1.420       .  A
C469        C474   1.401       .  A
C469        F476   1.351       .  S
C470        C471   1.418       .  A
C471        C472   1.399       .  A
C471        F478   1.359       .  S
C472        C473   1.400       .  A
C472        F477   1.358       .  S
C473        C474   1.401       .  A
C474        F475   1.358       .  S
C479        C480   1.406       .  A
C479        C484   1.400       .  A
C479        F486   1.357       .  S
C480        C481   1.406       .  A
C481        C482   1.398       .  A
C481        F488   1.358       .  S
C482        C483   1.402       .  A
C482        F487   1.357       .  S
C483        C484   1.403       .  A
C484        F485   1.357       .  S
C489        C490   1.408       .  A
C489        C494   1.395       .  A
C489        F496   1.358       .  S
C490        C491   1.408       .  A
C491        C492   1.406       .  A
C491        F498   1.358       .  S
C492        C493   1.406       .  A
C492        F497   1.358       .  S
C493        C494   1.401       .  A
C494        F495   1.358       .  S
C499        C500   1.399       .  A
C499        C504   1.400       .  A
C499        F506   1.358       .  S
C500        C501   1.401       .  A
C501        C502   1.402       .  A
C501        F508   1.358       .  S
C502        C503   1.418       .  A
C502        F507   1.354       .  S
C503        C504   1.419       .  A
C504        F505   1.358       .  S
C509        C510   1.402       .  A
C509        C514   1.398       .  A
C509        F516   1.358       .  S
C510        C511   1.402       .  A
C511        C512   1.398       .  A
C511        F518   1.358       .  S
C512        C513   1.409       .  A
C512        F517   1.358       .  S
C513        C514   1.407       .  A
C514        F515   1.358       .  S
C519        C520   1.404       .  A
C519        C524   1.404       .  A
C519        F526   1.357       .  S
C520        C521   1.404       .  A
C521        C522   1.399       .  A
C521        F528   1.358       .  S
C522        C523   1.408       .  A
C522        F527   1.357       .  S
C523        C524   1.409       .  A
C524        F525   1.358       .  S
C529        C530   1.402       .  A
C529        C534   1.396       .  A
C529        F536   1.357       .  S
C530        C531   1.403       .  A
C531        C532   1.401       .  A
C531        F538   1.358       .  S
C532        C533   1.407       .  A
C532        F537   1.358       .  S
C533        C534   1.405       .  A
C534        F535   1.358       .  S
C539        C540   1.406       .  A
C539        C544   1.395       .  A
C539        F546   1.358       .  S
C540        C541   1.408       .  A
C541        C542   1.401       .  A
C541        F548   1.358       .  S
C542        C543   1.404       .  A
C542        F547   1.358       .  S
C543        C544   1.402       .  A
C544        F545   1.357       .  S
C549        C550   1.402       .  A
C549        C554   1.403       .  A
C549        F556   1.358       .  S
C550        C551   1.399       .  A
C551        C552   1.395       .  A
C551        F558   1.358       .  S
C552        C553   1.416       .  A
C552        F557   1.358       .  S
C553        C554   1.420       .  A
C554        F555   1.353       .  S
C559        C560   1.418       .  A
C559        C564   1.398       .  A
C559        F566   1.358       .  S
C560        C561   1.417       .  A
C561        C562   1.401       .  A
C561        F568   1.355       .  S
C562        C563   1.400       .  A
C562        F567   1.358       .  S
C563        C564   1.399       .  A
C564        F565   1.358       .  S
C569        C570   1.405       .  A
C569        C574   1.401       .  A
C569        F576   1.358       .  S
C570        C571   1.406       .  A
C571        C572   1.398       .  A
C571        F578   1.358       .  S
C572        C573   1.409       .  A
C572        F577   1.356       .  S
C573        C574   1.412       .  A
C574        F575   1.358       .  S
C579        C580   1.409       .  A
C579        C584   1.397       .  A
C579        F586   1.358       .  S
C580        C581   1.408       .  A
C581        C582   1.400       .  A
C581        F588   1.358       .  S
C582        C583   1.407       .  A
C582        F587   1.358       .  S
C583        C584   1.404       .  A
C584        F585   1.358       .  S
C589        C590   1.405       .  A
C589        C594   1.400       .  A
C589        F596   1.358       .  S
C590        C591   1.404       .  A
C591        C592   1.398       .  A
C591        F598   1.358       .  S
C592        C593   1.408       .  A
C592        F597   1.358       .  S
C593        C594   1.408       .  A
C594        F595   1.357       .  S
C599        C600   1.411       .  A
C599        C604   1.400       .  A
C599        F606   1.357       .  S
C600        C601   1.408       .  A
C601        C602   1.398       .  A
C601        F608   1.356       .  S
C602        C603   1.406       .  A
C602        F607   1.358       .  S
C603        C604   1.406       .  A
C604        F605   1.358       .  S
C609        C610   1.407       .  A
C609        C614   1.397       .  A
C609        F616   1.357       .  S
C610        C611   1.411       .  A
C611        C612   1.402       .  A
C611        F618   1.358       .  S
C612        C613   1.405       .  A
C612        F617   1.358       .  S
C613        C614   1.406       .  A
C614        F615   1.358       .  S
C619        C620   1.408       .  A
C619        C624   1.399       .  A
C619        F626   1.358       .  S
C620        C621   1.407       .  A
C621        C622   1.400       .  A
C621        F628   1.358       .  S
C622        C623   1.406       .  A
C622        F627   1.358       .  S
C623        C624   1.406       .  A
C624        F625   1.358       .  S
C629        C630   1.409       .  A
C629        C634   1.401       .  A
C629        F636   1.357       .  S
C630        C631   1.411       .  A
C631        C632   1.400       .  A
C631        F638   1.357       .  S
C632        C633   1.405       .  A
C632        F637   1.358       .  S
C633        C634   1.408       .  A
C634        F635   1.358       .  S
C639        C640   1.407       .  A
C639        C644   1.399       .  A
C639        F646   1.358       .  S
C640        C641   1.405       .  A
C641        C642   1.398       .  A
C641        F648   1.358       .  S
C642        C643   1.411       .  A
C642        F647   1.358       .  S
C643        C644   1.408       .  A
C644        F645   1.357       .  S
