geometry optimzed in LAMMPS
_audit_creation_date              2020-12-01 
_audit_creation_method            'lammps2cif' 
_symmetry_space_group_name_H-M    'P1' 
_symmetry_Int_Tables_number       1 
_symmetry_cell_setting            triclinic 
loop_ 
_symmetry_equiv_pos_as_xyz 
  x,y,z 
_cell_length_a                    31.20289228 
_cell_length_b                    30.994336612949162 
_cell_length_c                    30.703259031438773 
_cell_angle_alpha                 89.24290502304775 
_cell_angle_beta                  89.70515667187375 
_cell_angle_gamma                 92.20879951493686 
loop_ 
_atom_site_label 
_atom_site_type_symbol 
_atom_site_fract_x 
_atom_site_fract_y 
_atom_site_fract_z 
_atom_site_charge 
C1          C  0.11284237  0.82414873  0.46589949     0.01100
C2          C  0.08867606  0.81817730  0.50593746     0.01100
C3          C  0.10864085  0.83642383  0.54500076     0.01100
C4          C  0.13735616  0.87524338  0.54088940     0.01100
C5          C  0.14349546  0.89522856  0.49762599     0.01100
C6          C  0.13647494  0.86571293  0.46129400     0.01100
C7          C  0.12955339  0.15970796  0.45511651     0.01100
C8          C  0.15289508  0.11924914  0.45453015     0.01100
C9          C  0.15556726  0.09233113  0.49279530     0.01100
C10         C  0.14645067  0.11219717  0.53294744     0.01100
C11         C  0.12185076  0.15094495  0.53337573     0.01100
C12         C  0.10483802  0.16892614  0.49392896     0.01100
C13         C  0.86880900  0.12645054  0.45442190     0.01100
C14         C  0.88999253  0.16940258  0.45657922     0.01100
C15         C  0.91118047  0.18022213  0.49722495     0.01100
C16         C  0.88927728  0.16318787  0.53666608     0.01100
C17         C  0.86424774  0.12206876  0.53501948     0.01100
C18         C  0.86024300  0.09994074  0.49330688     0.01100
C19         C  0.87982960  0.85134524  0.54172678     0.01100
C20         C  0.89665204  0.83219962  0.50220412     0.01100
C21         C  0.87122121  0.83818926  0.46312070     0.01100
C22         C  0.84682185  0.87747945  0.46006534     0.01100
C23         C  0.84353067  0.90496030  0.49726485     0.01100
C24         C  0.85116773  0.88665058  0.53868281     0.01100
C25         C  0.54576255  0.16673781  0.11933899     0.01100
C26         C  0.50703787  0.17724745  0.09530236     0.01100
C27         C  0.46580797  0.16559615  0.11600604     0.01100
C28         C  0.46340788  0.13287640  0.15063478     0.01100
C29         C  0.50132576  0.10948151  0.16047871     0.01100
C30         C  0.54277028  0.12764304  0.14658428     0.01100
C31         C  0.54026600  0.12768178  0.88808447     0.01100
C32         C  0.50167141  0.14620596  0.90502040     0.01100
C33         C  0.46150755  0.13734919  0.88280328     0.01100
C34         C  0.45916007  0.09990459  0.85433949     0.01100
C35         C  0.49716067  0.07667950  0.84226655     0.01100
C36         C  0.53801775  0.09685314  0.85332433     0.01100
C37         C  0.54272091  0.90019810  0.16367446     0.01100
C38         C  0.50063942  0.91716275  0.17220250     0.01100
C39         C  0.46391533  0.89278061  0.15579055     0.01100
C40         C  0.46872130  0.86442334  0.11861047     0.01100
C41         C  0.51038742  0.85825590  0.09965845     0.01100
C42         C  0.54732759  0.87272640  0.12533365     0.01100
C43         C  0.53888647  0.86776307  0.84830934     0.01100
C44         C  0.49760139  0.88707350  0.83730199     0.01100
C45         C  0.45898759  0.86222313  0.85078606     0.01100
C46         C  0.46061181  0.82733344  0.88332927     0.01100
C47         C  0.50054411  0.82305424  0.90692681     0.01100
C48         C  0.54025274  0.83535310  0.88424586     0.01100
C49         C  0.12236423  0.53765306  0.85561195     0.01100
C50         C  0.09735099  0.49936169  0.84594771     0.01100
C51         C  0.11676061  0.45875134  0.85352626     0.01100
C52         C  0.15507869  0.45720401  0.88100979     0.01100
C53         C  0.16708783  0.49532648  0.90601522     0.01100
C54         C  0.15693288  0.53628704  0.88665106     0.01100
C55         C  0.12888883  0.54122315  0.15585001     0.01100
C56         C  0.16155500  0.53828658  0.12266559     0.01100
C57         C  0.16357257  0.49808811  0.10055346     0.01100
C58         C  0.14914062  0.45890804  0.12321823     0.01100
C59         C  0.12142538  0.46039879  0.16208294     0.01100
C60         C  0.10371744  0.50315727  0.17251790     0.01100
C61         C  0.89766872  0.46111666  0.14289162     0.01100
C62         C  0.91576991  0.50250391  0.15642382     0.01100
C63         C  0.89062878  0.53952134  0.14362748     0.01100
C64         C  0.85410758  0.53405458  0.11396067     0.01100
C65         C  0.85380936  0.49668662  0.08570214     0.01100
C66         C  0.87272565  0.45886585  0.10323697     0.01100
C67         C  0.88268687  0.53340784  0.82832935     0.01100
C68         C  0.90731062  0.49561992  0.81712727     0.01100
C69         C  0.88750225  0.45345507  0.83036493     0.01100
C70         C  0.85845958  0.45178902  0.86833675     0.01100
C71         C  0.84928195  0.49072460  0.89087207     0.01100
C72         C  0.85992548  0.53143621  0.87010704     0.01100
O73         O  0.11121844  0.94033375  0.80520051    -0.81300
O74         O  0.18799308  0.03813246  0.89247999    -0.81300
O75         O  0.20702597  0.90280822  0.84946387    -0.81400
O76         O  0.14353142  0.08013567  0.79697437    -0.81300
O77         O  0.18982559  0.94904272  0.89703533    -0.81400
O78         O  0.09607252  0.02860601  0.80616719    -0.81300
O79         O  0.20561960  0.08844883  0.84200946    -0.81300
O80         O  0.16270169  0.89726912  0.78329625    -0.81400
C81         C  0.12449397  0.90292113  0.79747605     1.08400
C82         C  0.19483680  0.07776232  0.88174303     1.08300
C83         C  0.19759673  0.91099880  0.88802737     1.08400
C84         C  0.10492936  0.06851596  0.80358297     1.08300
O85         O  0.15741311  0.03927655  0.73087260    -0.81300
O86         O  0.27013594  0.95100481  0.83791145    -0.81400
O87         O  0.22111046  0.95631078  0.73082089    -0.81300
O88         O  0.26346014  0.03700321  0.77729725    -0.81300
O89         O  0.26234986  0.04093491  0.84562612    -0.81400
O90         O  0.15212554  0.95052023  0.72371446    -0.81300
O91         O  0.20441090  0.09386636  0.74023481    -0.81300
O92         O  0.25957129  0.90096994  0.78572778    -0.81400
Co93       Co  0.13254233  0.98992501  0.77073694     1.51500
Co94       Co  0.22390911  0.99388927  0.86503183     1.51700
Co95       Co  0.21404179  0.93847870  0.79346348     1.51600
Co96       Co  0.20037274  0.05137878  0.78639240     1.51500
O97         O  0.18473351  0.99245914  0.81146455    -1.43300
C98         C  0.17831458  0.07288943  0.71525932     1.08300
C99         C  0.28459505  0.92012311  0.81297156     1.08400
C100        C  0.18894954  0.94606955  0.70771101     1.08300
C101        C  0.28433583  0.04094936  0.81226614     1.08300
O102        O  0.03239320  0.09469499  0.79597799    -0.81300
O103        O  0.95283819  0.18341831  0.88861977    -0.81300
O104        O  0.09602609  0.20400730  0.83815540    -0.81400
O105        O  0.90566954  0.15124477  0.79316823    -0.81300
O106        O  0.04777397  0.18049551  0.88812307    -0.81400
O107        O  0.95100882  0.10217593  0.79920445    -0.81300
O108        O  0.90914370  0.21168467  0.84009041    -0.81300
O109        O  0.08461672  0.14153531  0.79530198    -0.81400
C110        C  0.07176811  0.10287247  0.80019969     1.08400
C111        C  0.91530028  0.19377094  0.87695933     1.08300
C112        C  0.08691473  0.18989678  0.87670327     1.08400
C113        C  0.91321754  0.11281178  0.80080287     1.08300
O114        O  0.95064139  0.17194262  0.72560288    -0.81300
O115        O  0.04963342  0.26215077  0.85174693    -0.81400
O116        O  0.10049158  0.20561996  0.74064886    -0.81300
O117        O  0.96598433  0.26517020  0.78130603    -0.81300
O118        O  0.96225058  0.27006913  0.85183504    -0.81400
O119        O  0.04343040  0.16299430  0.72719992    -0.81300
O120        O  0.90070100  0.21875722  0.74672311    -0.81300
O121        O  0.04882803  0.26335136  0.78132488    -0.81400
Co122      Co  0.99422084  0.13689582  0.76585487     1.51500
Co123      Co  0.00241177  0.22048110  0.86785553     1.51700
Co124      Co  0.05788548  0.19958670  0.78552927     1.51600
Co125      Co  0.94421819  0.20478402  0.78608368     1.51500
O126        O  0.99965060  0.18543323  0.81230156    -1.43300
C127        C  0.91911046  0.19803204  0.71669689     1.08300
C128        C  0.05510336  0.28310005  0.81681869     1.08400
C129        C  0.07820074  0.18305261  0.71364550     1.08300
C130        C  0.95699485  0.28715258  0.81412647     1.08300
O131        O  0.05295882  0.89133108  0.21785365    -0.81300
O132        O  0.95647466  0.81169910  0.11514454    -0.81300
O133        O  0.09450961  0.80864664  0.15807999    -0.81400
O134        O  0.92107354  0.85624322  0.20859753    -0.81300
O135        O  0.04761791  0.81885573  0.10821281    -0.81400
O136        O  0.97266233  0.90222361  0.22184861    -0.81300
O137        O  0.90994265  0.78677109  0.16511196    -0.81300
O138        O  0.10041996  0.84164851  0.22683982    -0.81400
C139        C  0.09124935  0.88078049  0.21684813     1.08400
C140        C  0.91784610  0.79991688  0.12600176     1.08300
C141        C  0.08592627  0.81493820  0.11894838     1.08400
C142        C  0.93486794  0.89486200  0.21151233     1.08300
O143        O  0.95581640  0.83083843  0.28808888    -0.81300
O144        O  0.05391705  0.73759516  0.16271145    -0.81400
O145        O  0.04440820  0.76614321  0.27033954    -0.81300
O146        O  0.95796155  0.73391999  0.22645219    -0.81300
O147        O  0.96916351  0.73374688  0.15771477    -0.81400
O148        O  0.04939703  0.83153027  0.29217405    -0.81300
O149        O  0.90138539  0.79014295  0.25977416    -0.81300
O150        O  0.10517401  0.74664821  0.21221119    -0.81400
Co151      Co  0.00745068  0.85953478  0.25020391     1.51500
Co152      Co  0.00699680  0.78032652  0.14039752     1.51700
Co153      Co  0.06207711  0.78831900  0.21115824     1.51600
Co154      Co  0.94652096  0.79775148  0.21918403     1.51500
O155        O  0.00589026  0.81573747  0.19796798    -1.43300
C156        C  0.91910051  0.80869341  0.29231791     1.08300
C157        C  0.08598986  0.72235406  0.18451200     1.08400
C158        C  0.05591499  0.79203149  0.29957402     1.08300
C159        C  0.95608416  0.71402868  0.19059520     1.08300
O160        O  0.22390682  0.84715406  0.10649777    -0.81300
O161        O  0.15321440  0.79774100  0.92353729    -0.81300
O162        O  0.19757595  0.88897478  0.96206676    -0.81400
O163        O  0.11287566  0.78111551  0.05638878    -0.81300
O164        O  0.21897626  0.84136322  0.91442288    -0.81400
O165        O  0.15813514  0.81329731  0.09757577    -0.81300
O166        O  0.10764493  0.78028057  0.97413226    -0.81300
O167        O  0.20173238  0.89294870  0.05559537    -0.81400
C168        C  0.21138085  0.88455316  0.09540659     1.08400
C169        C  0.11489961  0.79193624  0.93552038     1.08300
C170        C  0.20320064  0.87808993  0.92288572     1.08400
C171        C  0.12022951  0.80503703  0.08783963     1.08300
O172        O  0.21190348  0.75020923  0.11932767    -0.81300
O173        O  0.26957740  0.77672355  0.96912293    -0.81400
O174        O  0.27898908  0.85239169  0.05198133    -0.81300
O175        O  0.18075530  0.72380275  0.96418080    -0.81300
O176        O  0.21796258  0.74621599  0.90595152    -0.81400
O177        O  0.27396728  0.78290540  0.05797534    -0.81300
O178        O  0.19667465  0.72945595  0.05327866    -0.81300
O179        O  0.28075286  0.84569388  0.96317281    -0.81400
Co180      Co  0.21197773  0.79349413  0.07167039     1.51500
Co181      Co  0.20965675  0.78699774  0.95224401     1.51700
Co182      Co  0.23623469  0.86725062  0.00762446     1.51600
Co183      Co  0.15343240  0.75849677  0.01298114     1.51500
O184        O  0.19636387  0.81359477  0.01025427    -1.43300
C185        C  0.19846612  0.72003531  0.09413089     1.08300
C186        C  0.29453003  0.80772035  0.95831503     1.08400
C187        C  0.29702462  0.81754305  0.05864831     1.08300
C188        C  0.19983282  0.71543332  0.92801001     1.08300
O189        O  0.09741634  0.15284210  0.22001747    -0.81300
O190        O  0.93042382  0.17571176  0.14442733    -0.81300
O191        O  0.95806072  0.10272191  0.20065382    -0.81400
O192        O  0.05135017  0.20946611  0.10470177    -0.81300
O193        O  0.91038857  0.15124725  0.21442220    -0.81400
O194        O  0.09848550  0.19726528  0.15396433    -0.81300
O195        O  0.96573427  0.22002458  0.10331010    -0.81300
O196        O  0.04770110  0.10223607  0.20499947    -0.81400
C197        C  0.08683784  0.11392043  0.20951002     1.08400
C198        C  0.93515393  0.19247163  0.10800911     1.08300
C199        C  0.91908092  0.11238648  0.20413868     1.08400
C200        C  0.08867324  0.19957944  0.11467140     1.08300
O201        O  0.11543328  0.24759987  0.21994952    -0.81300
O202        O  0.95823614  0.22452910  0.25885371    -0.81400
O203        O  0.04709816  0.15110494  0.28380759    -0.81300
O204        O  0.97410727  0.27395708  0.18407685    -0.81300
O205        O  0.90747829  0.24881458  0.18937609    -0.81400
O206        O  0.04811337  0.21950179  0.26962567    -0.81300
O207        O  0.06339845  0.27229360  0.17806180    -0.81300
O208        O  0.95788095  0.15685822  0.27948880    -0.81400
Co209      Co  0.06689711  0.20861956  0.20897664     1.51500
Co210      Co  0.94968190  0.20354802  0.19852651     1.51700
Co211      Co  0.00289831  0.13182759  0.23820268     1.51600
Co212      Co  0.01302938  0.23761559  0.14677500     1.51500
O213        O  0.00931506  0.18247699  0.19203216    -1.43300
C214        C  0.09792281  0.27937637  0.20123446     1.08300
C215        C  0.94859133  0.19589473  0.28723850     1.08400
C216        C  0.05738340  0.18932326  0.29525601     1.08300
C217        C  0.93388433  0.28096652  0.18210479     1.08300
O218        O  0.16287010  0.90965986  0.21196183    -0.81300
O219        O  0.21876215  0.09886727  0.15837771    -0.81300
O220        O  0.11176237  0.04167095  0.20875058    -0.81400
O221        O  0.20131547  0.95647339  0.11681431    -0.81300
O222        O  0.15881874  0.09338115  0.21152062    -0.81400
O223        O  0.22607200  0.91125706  0.16686955    -0.81300
O224        O  0.19750549  0.04785531  0.11201567    -0.81300
O225        O  0.11305252  0.95572056  0.20954418    -0.81400
C226        C  0.12391671  0.91694130  0.21040274     1.08400
C227        C  0.20512225  0.08749427  0.12015038     1.08300
C228        C  0.12050153  0.08126974  0.20841674     1.08400
C229        C  0.21159477  0.91874421  0.12838124     1.08300
O230        O  0.27691687  0.96699015  0.22868304    -0.81300
O231        O  0.22549639  0.10361842  0.26083290    -0.81400
O232        O  0.17626360  0.95546855  0.27800366    -0.81300
O233        O  0.28059940  0.05396327  0.15214319    -0.81300
O234        O  0.27373849  0.04889918  0.22196961    -0.81400
O235        O  0.22440699  0.90560317  0.26618056    -0.81300
O236        O  0.28319808  0.96739737  0.15791622    -0.81300
O237        O  0.18344552  0.04497240  0.27612832    -0.81400
Co238      Co  0.21629036  0.94744089  0.22067680     1.51500
Co239      Co  0.21380840  0.06275223  0.21591281     1.51700
Co240      Co  0.14976996  0.00063777  0.23858985     1.51600
Co241      Co  0.23697410  0.00610755  0.13728472     1.51500
O242        O  0.19855057  0.00356666  0.19166535    -1.43300
C243        C  0.29885218  0.95932384  0.19539559     1.08300
C244        C  0.20780774  0.07730217  0.28889460     1.08400
C245        C  0.19787912  0.92359226  0.29167595     1.08300
C246        C  0.29535403  0.06165050  0.18971091     1.08300
O247        O  0.20367212  0.10725371  0.04401236    -0.81300
O248        O  0.11226111  0.18218481  0.94905881    -0.81300
O249        O  0.16044964  0.21367003  0.08933030    -0.81400
O250        O  0.20308398  0.14984576  0.90445647    -0.81300
O251        O  0.11249305  0.18493826  0.04282133    -0.81400
O252        O  0.20004792  0.10263596  0.95645475    -0.81300
O253        O  0.15838185  0.20938782  0.89945040    -0.81300
O254        O  0.21076068  0.15848524  0.08970165    -0.81400
C255        C  0.20491428  0.11918524  0.08286563     1.08400
C256        C  0.12135523  0.19208028  0.90966499     1.08300
C257        C  0.12268476  0.19694839  0.08114847     1.08400
C258        C  0.19766763  0.11139347  0.91633083     1.08300
O259        O  0.26829060  0.16960529  0.94545545    -0.81300
O260        O  0.14675257  0.26981317  0.03674963    -0.81400
O261        O  0.26086083  0.22508188  0.09159048    -0.81300
O262        O  0.21830593  0.26790011  0.94926759    -0.81300
O263        O  0.14808764  0.26965929  0.94880113    -0.81400
O264        O  0.27455176  0.17628322  0.04028205    -0.81300
O265        O  0.25890865  0.21400605  0.89043699    -0.81300
O266        O  0.21604000  0.27412263  0.03366149    -0.81400
Co267      Co  0.23284122  0.14270728  0.99677358     1.51500
Co268      Co  0.13242491  0.22313997  0.99416340     1.51700
Co269      Co  0.21493751  0.21217703  0.05168266     1.51600
Co270      Co  0.21323440  0.20630922  0.93500429     1.51500
O271        O  0.18830835  0.19120523  0.99507564    -1.43300
C272        C  0.28412411  0.18941295  0.91147122     1.08300
C273        C  0.18117465  0.29220427  0.04090479     1.08400
C274        C  0.28771660  0.20131461  0.07217801     1.08300
C275        C  0.18471506  0.28832354  0.94217529     1.08300
O276        O  0.84824981  0.08681990  0.21732210    -0.81300
O277        O  0.79208995  0.90033311  0.16047610    -0.81300
O278        O  0.91499889  0.96687935  0.22784069    -0.81400
O279        O  0.80868613  0.03949449  0.11003044    -0.81300
O280        O  0.86749843  0.92449080  0.19342949    -0.81400
O281        O  0.78663162  0.08850624  0.15689757    -0.81300
O282        O  0.81404631  0.94878793  0.11289425    -0.81300
O283        O  0.88907615  0.04094387  0.18364577    -0.81400
C284        C  0.88372284  0.07847641  0.19967590     1.08400
C285        C  0.80673218  0.90938689  0.12240453     1.08300
C286        C  0.90532143  0.93102452  0.20960014     1.08400
C287        C  0.80129050  0.07838831  0.11967553     1.08300
O288        O  0.72678571  0.04546459  0.21625903    -0.81300
O289        O  0.80771902  0.88750033  0.24943998    -0.81400
O290        O  0.86062629  0.02551070  0.26957914    -0.81300
O291        O  0.72829920  0.94597326  0.16071801    -0.81300
O292        O  0.74406278  0.94170027  0.23023629    -0.92200
O293        O  0.79257295  0.03761934  0.27539500    -0.81300
O294        O  0.72613550  0.03213303  0.14726212    -0.81300
O295        O  0.83971336  0.94964212  0.26816545    -0.81400
Co296      Co  0.78884647  0.05970125  0.21561645     1.51500
Co297      Co  0.80474626  0.93794697  0.21311835     1.51700
Co298      Co  0.86081247  0.99038287  0.21641307     1.51600
Co299      Co  0.77233586  0.99147039  0.13550819     1.51500
O300        O  0.80358242  0.00010593  0.19200286    -1.43300
C301        C  0.70834710  0.04803273  0.18006473     1.08300
C302        C  0.82444137  0.91156833  0.27845218     1.08400
C303        C  0.82959615  0.03908809  0.29158895     1.08300
C304        C  0.71709543  0.93673716  0.20010648     1.08300
O305        O  0.79154849  0.14984297  0.09440003    -0.81300
O306        O  0.84356838  0.20694802  0.90070694    -0.81300
O307        O  0.81539921  0.09635176  0.96203733    -0.81400
O308        O  0.90475942  0.17633005  0.03664536    -0.81300
O309        O  0.80015388  0.13985488  0.91046539    -0.81400
O310        O  0.86270383  0.20076304  0.08871267    -0.81300
O311        O  0.88694853  0.17463559  0.94562188    -0.81300
O312        O  0.81210570  0.10254201  0.04755304    -0.81400
C313        C  0.80368739  0.11231475  0.08598185     1.08400
C314        C  0.87963922  0.18991100  0.90826978     1.08300
C315        C  0.81082311  0.10278903  0.92210037     1.08400
C316        C  0.89908044  0.18712360  0.07620599     1.08300
O317        O  0.81014108  0.26680367  0.04417505    -0.81300
O318        O  0.74519046  0.20153218  0.90034748    -0.81400
O319        O  0.72970043  0.14729617  0.04388021    -0.81300
O320        O  0.85893703  0.26464602  0.95273689    -0.81300
O321        O  0.78829693  0.25971260  0.95406251    -0.81400
O322        O  0.74233708  0.21610861  0.04712150    -0.81300
O323        O  0.87782273  0.25954618  0.03873161    -0.81300
O324        O  0.73903675  0.15482551  0.95490820    -0.81400
Co325      Co  0.80242320  0.20709249  0.06331416     1.51500
Co326      Co  0.79211296  0.19769434  0.94118053     1.51700
Co327      Co  0.77812977  0.12937354  0.00206830     1.51600
Co328      Co  0.87826709  0.21502005  0.99305435     1.51500
O329        O  0.81793932  0.18538096  0.00159268    -1.43300
C330        C  0.84710990  0.28193780  0.04929188     1.08300
C331        C  0.72148764  0.17479479  0.92294630     1.08400
C332        C  0.71664177  0.18465786  0.05268089     1.08300
C333        C  0.82256811  0.28178054  0.94625063     1.08300
O334        O  0.09957171  0.82956461  0.78848132    -0.81300
O335        O  0.90986920  0.77227289  0.84752146    -0.81300
O336        O  0.96873255  0.89103723  0.81740433    -0.81400
O337        O  0.04258492  0.77899039  0.91079513    -0.81300
O338        O  0.91826465  0.84211537  0.81246278    -0.81400
O339        O  0.09121887  0.79406129  0.86244292    -0.81300
O340        O  0.95739243  0.78177153  0.89990359    -0.81300
O341        O  0.05531490  0.87676063  0.81356617    -0.81400
C342        C  0.09245341  0.86750539  0.80116400     1.08400
C343        C  0.91890287  0.78098119  0.88749769     1.08300
C344        C  0.92934718  0.88077122  0.81871578     1.08400
C345        C  0.08052309  0.79046796  0.90172832     1.08300
O346        O  0.10694815  0.73999325  0.80011349    -0.81300
O347        O  0.90191529  0.78835428  0.75043936    -0.81400
O348        O  0.04361993  0.83202933  0.73220214    -0.81300
O349        O  0.95818005  0.70847379  0.84127866    -0.81300
O350        O  0.96029869  0.72899077  0.77395062    -0.81400
O351        O  0.04522879  0.76308487  0.74668044    -0.81300
O352        O  0.04987502  0.71395885  0.83897447    -0.81300
O353        O  0.95574752  0.83567902  0.73958948    -0.81400
Co354      Co  0.06194680  0.77781698  0.80687030     1.51500
Co355      Co  0.94658062  0.78843315  0.79351494     1.51700
Co356      Co  0.00603175  0.85496181  0.78004861     1.51600
Co357      Co  0.00224034  0.75060379  0.86872519     1.51500
O358        O  0.00392466  0.80077969  0.82160806    -1.43300
C359        C  0.08516658  0.70828878  0.81660565     1.08300
C360        C  0.92121892  0.81627397  0.72536766     1.08400
C361        C  0.05181051  0.79411771  0.72029848     1.08300
C362        C  0.94941830  0.70037299  0.80179594     1.08300
O363        O  0.88688254  0.04276584  0.82102508    -0.81300
O364        O  0.81424647  0.94094462  0.89522736    -0.81300
O365        O  0.79751315  0.07568089  0.85110400    -0.81400
O366        O  0.85941264  0.89968595  0.79862669    -0.81300
O367        O  0.81611520  0.02845785  0.89785226    -0.81400
O368        O  0.90050196  0.95232210  0.82543055    -0.81300
O369        O  0.79107823  0.89217027  0.84940131    -0.81300
O370        O  0.84156560  0.08581526  0.78865895    -0.81400
C371        C  0.87827757  0.07974516  0.80581449     1.08400
C372        C  0.80805333  0.90170902  0.88557972     1.08300
C373        C  0.81027582  0.06727703  0.88886928     1.08400
C374        C  0.89436721  0.91260730  0.81688609     1.08300
O375        O  0.87325621  0.94655873  0.73570486    -0.81300
O376        O  0.73430598  0.02970579  0.84137000    -0.81400
O377        O  0.79099266  0.03397817  0.72889954    -0.81300
O378        O  0.73789212  0.93196894  0.78247833    -0.81300
O379        O  0.72937697  0.94102866  0.85189332    -0.81400
O380        O  0.86091184  0.03321683  0.73156396    -0.81300
O381        O  0.80429066  0.94077464  0.73163652    -0.81300
O382        O  0.74229768  0.08014474  0.78945002    -0.81400
Co383      Co  0.87629691  0.99326875  0.78210589     1.51500
Co384      Co  0.77780115  0.98521119  0.86727535     1.51700
Co385      Co  0.79040608  0.04342263  0.79355925     1.51600
Co386      Co  0.79905184  0.92174990  0.79127378     1.51500
O387        O  0.81507859  0.98489347  0.80991809    -1.43300
C388        C  0.83976358  0.93573116  0.71452949     1.08300
C389        C  0.71814251  0.06067022  0.81806476     1.08400
C390        C  0.82721621  0.04348322  0.71099396     1.08300
C391        C  0.71420218  0.92884897  0.81538606     1.08300
O392        O  0.82388600  0.88045749  0.05002922    -0.81300
O393        O  0.89209672  0.79927658  0.95943701    -0.81300
O394        O  0.84625836  0.77755174  0.10173236    -0.81400
O395        O  0.79456673  0.83030224  0.91016597    -0.81300
O396        O  0.88963063  0.80711452  0.05290290    -0.81400
O397        O  0.82867316  0.87341762  0.95551474    -0.81300
O398        O  0.84798399  0.76789003  0.91297052    -0.81300
O399        O  0.78995183  0.83870734  0.09845932    -0.81400
C400        C  0.80905150  0.87441231  0.08876791     1.08400
C401        C  0.88448302  0.78479985  0.92124546     1.08300
C402        C  0.88245028  0.79648453  0.09227505     1.08400
C403        C  0.81354009  0.86643688  0.91795225     1.08300
O404        O  0.73760087  0.84654946  0.95705494    -0.81300
O405        O  0.85077843  0.71662656  0.05563683    -0.81400
O406        O  0.72637313  0.78446009  0.05459070    -0.81300
O407        O  0.78717740  0.71132191  0.95979242    -0.81300
O408        O  0.85533118  0.71470361  0.97124055    -0.81400
O409        O  0.73731117  0.85251682  0.04211720    -0.81300
O410        O  0.72992420  0.77632111  0.95737055    -0.81300
O411        O  0.78140586  0.71882398  0.05538369    -0.81400
Co412      Co  0.78600510  0.85795089  0.00129190     1.51500
Co413      Co  0.86759186  0.76406640  0.00994830     1.51700
Co414      Co  0.78722506  0.77989090  0.07098332     1.51600
Co415      Co  0.79049830  0.77267264  0.94211666     1.51500
O416        O  0.80819696  0.79420561  0.00600600    -1.43300
C417        C  0.71506257  0.81243453  0.94849621     1.08300
C418        C  0.81412710  0.69777509  0.06207067     1.08400
C419        C  0.71327472  0.82228700  0.05662466     1.08300
C420        C  0.82297746  0.69431382  0.95660454     1.08300
C421        C  0.86060785  0.61211568  0.81191941    -0.03000
C422        C  0.88481831  0.57663154  0.80101615     0.06600
C423        C  0.91011617  0.58642756  0.76333854    -0.03100
C424        C  0.92976283  0.62933170  0.75895523    -0.03100
C425        C  0.92120865  0.66052157  0.79136865     0.06800
C426        C  0.88147078  0.65331235  0.81324971    -0.03300
Br427      Br  0.84813316  0.70129714  0.82922333    -0.01900
Br428      Br  0.80395798  0.61062552  0.78778405    -0.02000
Br429      Br  0.95471005  0.64900760  0.70446980    -0.01900
Br430      Br  0.89144443  0.55725665  0.71171624    -0.01900
C431        C  0.88119265  0.59839195  0.91513289    -0.03000
C432        C  0.84916497  0.57205680  0.89467636     0.06600
C433        C  0.80669524  0.58683634  0.89493041    -0.03100
C434        C  0.79737022  0.62727337  0.91331349    -0.03100
C435        C  0.83039626  0.65327269  0.93269974     0.06800
C436        C  0.87308345  0.64000118  0.92832591    -0.03300
Br437      Br  0.92375190  0.67877641  0.93439434    -0.01900
Br438      Br  0.93434344  0.57934997  0.93697455    -0.02000
Br439      Br  0.74074570  0.64876939  0.90507384    -0.01900
Br440      Br  0.76095544  0.55243816  0.86889471    -0.01900
C441        C  0.87177223  0.37291767  0.81158703    -0.03000
C442        C  0.89847247  0.41047081  0.80821886     0.06600
C443        C  0.93241156  0.40396380  0.77907085    -0.03100
C444        C  0.95487876  0.36503115  0.78414369    -0.03100
C445        C  0.93563375  0.32969862  0.80831230     0.06800
C446        C  0.89120937  0.33293640  0.81745031    -0.03300
Br447      Br  0.85415572  0.28314189  0.82752029    -0.01900
Br448      Br  0.82156238  0.37127943  0.77537178    -0.02000
Br449      Br  0.99977249  0.35465130  0.74327872    -0.01900
Br450      Br  0.91392745  0.41038340  0.71940747    -0.01900
C451        C  0.80280753  0.38831808  0.88075406    -0.03000
C452        C  0.84294881  0.40956003  0.89040862     0.06600
C453        C  0.86783211  0.38910237  0.92243375    -0.03100
C454        C  0.84742685  0.35816793  0.94963736    -0.03100
C455        C  0.82205997  0.32750384  0.92889242     0.06800
C456        C  0.79476188  0.34480029  0.89640768    -0.03300
Br457      Br  0.74798411  0.31137488  0.87415305    -0.01900
Br458      Br  0.76076525  0.41722221  0.84616405    -0.02000
Br459      Br  0.81018456  0.38156076  0.99176044    -0.01900
Br460      Br  0.92481712  0.37513034  0.90855378    -0.01900
C461        C  0.92670195  0.63809477  0.21330857    -0.03000
C462        C  0.93597575  0.67002009  0.18103459     0.06600
C463        C  0.92668119  0.65951892  0.13635093    -0.03100
C464        C  0.90998314  0.61856927  0.12508838    -0.03100
C465        C  0.90462524  0.58507984  0.15717987     0.06800
C466        C  0.91168982  0.59597873  0.20148114    -0.03300
Br467      Br  0.89709361  0.55459212  0.24703834    -0.01900
Br468      Br  0.93565162  0.65096470  0.27387297    -0.02000
Br469      Br  0.89883198  0.60912480  0.06297235    -0.01900
Br470      Br  0.93678774  0.69909358  0.08642123    -0.01900
C471        C  0.81659465  0.64585813  0.12641773    -0.03000
C472        C  0.80947359  0.65326132  0.08153835     0.06600
C473        C  0.79101465  0.61797793  0.05831595    -0.03100
C474        C  0.79210035  0.57557145  0.07634756    -0.03100
C475        C  0.81956340  0.56896352  0.11175740     0.06800
C476        C  0.81750328  0.60271182  0.14221531    -0.03300
Br477      Br  0.80423505  0.58926609  0.20197379    -0.01900
Br478      Br  0.82324662  0.69340986  0.16577114    -0.02000
Br479      Br  0.73518079  0.55176914  0.08744966    -0.01900
Br480      Br  0.75037768  0.62904697  0.01356438    -0.01900
C481        C  0.94187359  0.39718969  0.13798906    -0.03000
C482        C  0.91115106  0.41842332  0.16155807     0.06600
C483        C  0.88645625  0.39443899  0.19321299    -0.03100
C484        C  0.89248884  0.34936992  0.19994790    -0.03100
C485        C  0.92191090  0.32730639  0.17376903     0.06800
C486        C  0.94624418  0.35206874  0.14239296    -0.03300
Br487      Br  0.98608398  0.32455657  0.10478586    -0.01900
Br488      Br  0.97971688  0.43389805  0.10240984    -0.02000
Br489      Br  0.86195909  0.31880055  0.24624880    -0.01900
Br490      Br  0.84607540  0.42388014  0.22901157    -0.01900
C491        C  0.82958047  0.38877074  0.10292642    -0.03000
C492        C  0.86304364  0.41473091  0.08368108     0.06600
C493        C  0.89186706  0.39394342  0.05482671    -0.03100
C494        C  0.88962726  0.34952653  0.04816677    -0.03100
C495        C  0.85518455  0.32519017  0.06608888     0.06800
C496        C  0.82627196  0.34410931  0.09503352    -0.03300
Br497      Br  0.78452857  0.30835910  0.12697402    -0.01900
Br498      Br  0.78692141  0.41423871  0.13918612    -0.02000
Br499      Br  0.93233593  0.32311964  0.00977675    -0.01900
Br500      Br  0.93211103  0.42106240  0.01692961    -0.01900
C501        C  0.80665774  0.48575106  0.96653527    -0.03000
C502        C  0.84473159  0.49003616  0.94084927     0.06600
C503        C  0.88288523  0.49432122  0.96356962    -0.03100
C504        C  0.88388740  0.50471369  0.00816198    -0.03100
C505        C  0.84726592  0.49908688  0.03554565     0.06800
C506        C  0.80863263  0.48656511  0.01341390    -0.03300
Br507      Br  0.76031375  0.46226769  0.04527854    -0.01900
Br508      Br  0.75276138  0.47121111  0.93985620    -0.02000
Br509      Br  0.93879960  0.52015710  0.03025544    -0.01900
Br510      Br  0.93424119  0.47900459  0.93321863    -0.01900
C511        C  0.09501709  0.61060228  0.13369666    -0.03000
C512        C  0.11677917  0.58691748  0.16563521     0.06600
C513        C  0.12908738  0.60787566  0.20429243    -0.03100
C514        C  0.12190873  0.65258465  0.20965758    -0.03100
C515        C  0.09818721  0.67602881  0.17797774     0.06800
C516        C  0.08287093  0.65309135  0.14102455    -0.03300
Br517      Br  0.04218293  0.67628001  0.10038522    -0.01900
Br518      Br  0.08109985  0.58428989  0.07898574    -0.02000
Br519      Br  0.14298448  0.67923126  0.26226167    -0.01900
Br520      Br  0.15355522  0.57435598  0.25063484    -0.01900
C521        C  0.21185489  0.60373801  0.14013411    -0.03000
C522        C  0.18794481  0.57986357  0.10846718     0.06600
C523        C  0.17600386  0.60436063  0.07164490    -0.03100
C524        C  0.16736001  0.64765867  0.07712200    -0.03100
C525        C  0.19178191  0.67287310  0.10632384     0.06800
C526        C  0.21463245  0.65013477  0.13864504    -0.03300
Br527      Br  0.24566621  0.68138253  0.18272237    -0.01900
Br528      Br  0.24291151  0.57220335  0.18306862    -0.02000
Br529      Br  0.12795832  0.67259912  0.03736192    -0.01900
Br530      Br  0.21236354  0.60694696  0.02141967    -0.01900
C531        C  0.07878183  0.39455000  0.20448651    -0.03000
C532        C  0.11710717  0.41725195  0.19002158     0.06600
C533        C  0.15439754  0.39308826  0.19847980    -0.03100
C534        C  0.15157163  0.34671585  0.20182962    -0.03100
C535        C  0.11120741  0.32582633  0.20961882     0.06800
C536        C  0.07860449  0.35236209  0.22149705    -0.03300
Br537      Br  0.03116183  0.32842109  0.25635874    -0.01900
Br538      Br  0.02388204  0.40479164  0.18816396    -0.02000
Br539      Br  0.20182296  0.31317398  0.19981652    -0.01900
Br540      Br  0.20483613  0.42368259  0.21845395    -0.01900
C541        C  0.21070978  0.36083660  0.07968665    -0.03000
C542        C  0.17791120  0.33766607  0.05687679     0.06600
C543        C  0.13767148  0.35629961  0.05421553    -0.03100
C544        C  0.12834526  0.39071229  0.08102117    -0.03100
C545        C  0.16018370  0.41599977  0.10207059     0.06800
C546        C  0.20269293  0.40136917  0.09889689    -0.03300
Br547      Br  0.25026376  0.43412412  0.12290356    -0.01900
Br548      Br  0.26625387  0.33768127  0.08660860    -0.02000
Br549      Br  0.07077444  0.39427699  0.09495353    -0.01900
Br550      Br  0.09310927  0.33491689  0.01475280    -0.01900
C551        C  0.02885233  0.49047034  0.22019076    -0.03000
C552        C  0.05603093  0.51122067  0.18826200     0.06600
C553        C  0.03377647  0.54527084  0.17048576    -0.03100
C554        C  0.99399321  0.53543206  0.15246269    -0.03100
C555        C  0.96327450  0.50803617  0.17471450     0.06800
C556        C  0.98197844  0.48821477  0.21331473    -0.03300
Br557      Br  0.94751368  0.45847527  0.25680931    -0.01900
Br558      Br  0.05440482  0.47084590  0.27347264    -0.02000
Br559      Br  0.98569015  0.56878623  0.10304424    -0.01900
Br560      Br  0.02515722  0.59123552  0.21149166    -0.01900
C561        C  0.13818293  0.64788023  0.80004225    -0.03000
C562        C  0.09686653  0.66362367  0.80788710     0.06600
C563        C  0.06385644  0.63268457  0.81040866    -0.03100
C564        C  0.07262223  0.59911062  0.83831082    -0.03100
C565        C  0.11236183  0.57948598  0.83307318     0.06800
C566        C  0.14338954  0.60286964  0.80693890    -0.03300
Br567      Br  0.18475482  0.57299748  0.77375821    -0.01900
Br568      Br  0.18576021  0.68481019  0.78198461    -0.02000
Br569      Br  0.05086557  0.61187997  0.89396023    -0.01900
Br570      Br  0.04395555  0.61522075  0.75452745    -0.01900
C571        C  0.14902035  0.60478701  0.92740094    -0.03000
C572        C  0.17572704  0.57927316  0.90249658     0.06600
C573        C  0.21364729  0.59990796  0.88430321    -0.03100
C574        C  0.22312754  0.64481453  0.89152390    -0.03100
C575        C  0.19261247  0.67007253  0.91248365     0.06800
C576        C  0.15358017  0.64983699  0.92562558    -0.03300
Br577      Br  0.10454049  0.68517247  0.93588384    -0.01900
Br578      Br  0.11203724  0.57852134  0.97071013    -0.02000
Br579      Br  0.27625970  0.67177371  0.87130533    -0.01900
Br580      Br  0.25433011  0.56684068  0.85247327    -0.01900
C581        C  0.05731048  0.35048462  0.86014415    -0.03000
C582        C  0.06852038  0.32970127  0.82114729     0.06600
C583        C  0.09276340  0.35405950  0.78934964    -0.03100
C584        C  0.10666384  0.39749314  0.79785309    -0.03100
C585        C  0.09448691  0.41759653  0.83709309     0.06800
C586        C  0.06494560  0.39448461  0.86401695    -0.03300
Br587      Br  0.02024882  0.42112515  0.89349777    -0.01900
Br588      Br  0.03074475  0.32189334  0.91134619    -0.02000
Br589      Br  0.14334457  0.42838102  0.75634954    -0.01900
Br590      Br  0.11007511  0.32775161  0.73593805    -0.01900
C591        C  0.17209104  0.33806789  0.87935087    -0.03000
C592        C  0.18730604  0.33207871  0.92208281     0.06600
C593        C  0.21159321  0.36686970  0.94022566    -0.03100
C594        C  0.20895525  0.40862382  0.92139982    -0.03100
C595        C  0.17795430  0.41474857  0.88902036     0.06800
C596        C  0.17529780  0.37965179  0.86060560    -0.03300
Br597      Br  0.21651275  0.38326798  0.81370310    -0.01900
Br598      Br  0.16522426  0.28931388  0.84156701    -0.02000
Br599      Br  0.26261255  0.43949437  0.91227785    -0.01900
Br600      Br  0.25750719  0.35575907  0.97927508    -0.01900
C601        C  0.13820387  0.47455462  0.98144581    -0.03000
C602        C  0.17298774  0.49169268  0.95621234     0.06600
C603        C  0.20870351  0.50819549  0.98114142    -0.03100
C604        C  0.20812382  0.50613961  0.02802223    -0.03100
C605        C  0.16915806  0.49694147  0.05098793     0.06800
C606        C  0.13356335  0.48418259  0.02557730    -0.03300
Br607      Br  0.07578460  0.48596850  0.04724031    -0.01900
Br608      Br  0.09903254  0.43153460  0.96056285    -0.02000
Br609      Br  0.26009970  0.52003533  0.05977013    -0.01900
Br610      Br  0.25923830  0.53408572  0.95436980    -0.01900
C611        C  0.01924945  0.51440924  0.86474331    -0.03000
C612        C  0.04972055  0.50221581  0.83341038     0.06600
C613        C  0.03360985  0.49657788  0.79068188    -0.03100
C614        C  0.98805220  0.49410706  0.78258324    -0.03100
C615        C  0.95769847  0.50110717  0.81699080     0.06800
C616        C  0.97698203  0.52309896  0.85184893    -0.03300
Br617      Br  0.97114897  0.58300384  0.84228832    -0.01900
Br618      Br  0.03339108  0.51719221  0.92607575    -0.02000
Br619      Br  0.97197277  0.49595482  0.72291843    -0.01900
Br620      Br  0.07324645  0.50184710  0.74276229    -0.01900
C621        C  0.60794091  0.86012384  0.80117938    -0.03000
C622        C  0.58115367  0.88530342  0.82769526     0.06600
C623        C  0.60013895  0.92455791  0.84134975    -0.03100
C624        C  0.63707033  0.94144999  0.82031956    -0.03100
C625        C  0.66843047  0.91253228  0.81201682     0.06800
C626        C  0.65309044  0.87122474  0.79783480    -0.03300
Br627      Br  0.69186880  0.83116505  0.77421315    -0.01900
Br628      Br  0.58224199  0.81687066  0.76456152    -0.02000
Br629      Br  0.63295913  0.98343717  0.77453265    -0.01900
Br630      Br  0.61194054  0.92318711  0.90067792    -0.01900
C631        C  0.64366096  0.84447449  0.94693745    -0.03000
C632        C  0.67146131  0.81549007  0.92875404     0.06600
C633        C  0.65380944  0.78659299  0.89714606    -0.03100
C634        C  0.60995732  0.78992834  0.88369773    -0.03100
C635        C  0.58340591  0.82020378  0.90387248     0.06800
C636        C  0.59968188  0.83519011  0.94435053    -0.03300
Br637      Br  0.59494760  0.79508261  0.99272175    -0.01900
Br638      Br  0.66404264  0.89048484  0.98308238    -0.02000
Br639      Br  0.58412396  0.74695621  0.84675476    -0.01900
Br640      Br  0.68947171  0.74514479  0.87060565    -0.01900
C641        C  0.35578762  0.88884756  0.78587833    -0.03000
C642        C  0.32953263  0.90497177  0.81966674     0.06600
C643        C  0.34639792  0.90614872  0.86188256    -0.03100
C644        C  0.38853533  0.89484140  0.87019198    -0.03100
C645        C  0.41493669  0.87790861  0.83781715     0.06800
C646        C  0.39821157  0.87520072  0.79497390    -0.03300
Br647      Br  0.43465511  0.85656815  0.74835568    -0.01900
Br648      Br  0.33639191  0.88969173  0.72649008    -0.02000
Br649      Br  0.40914244  0.90091638  0.92753202    -0.01900
Br650      Br  0.31004301  0.91676425  0.91066690    -0.01900
C651        C  0.41133209  0.77620701  0.93410926    -0.03000
C652        C  0.41830650  0.80145433  0.89627035     0.06600
C653        C  0.38156453  0.79876367  0.86959900    -0.03100
C654        C  0.34051058  0.80187740  0.88940251    -0.03100
C655        C  0.33684535  0.79983268  0.93560846     0.06800
C656        C  0.37213352  0.78118600  0.95726216    -0.03300
Br657      Br  0.36149690  0.74432078  0.00712697    -0.01900
Br658      Br  0.41828270  0.71597651  0.92099613    -0.02000
Br659      Br  0.29047770  0.80231135  0.85324883    -0.01900
Br660      Br  0.38707713  0.77383474  0.81291654    -0.01900
C661        C  0.60035724  0.94781397  0.21022988    -0.03000
C662        C  0.58236940  0.90757980  0.19437228     0.06600
C663        C  0.60945993  0.87247962  0.20265209    -0.03100
C664        C  0.65488061  0.87961604  0.20277797    -0.03100
C665        C  0.67189534  0.92151640  0.21024765     0.06800
C666        C  0.64297105  0.95096632  0.22489146    -0.03300
Br667      Br  0.66025311  0.99103828  0.26919644    -0.01900
Br668      Br  0.58261132  0.00355177  0.19808847    -0.02000
Br669      Br  0.69271818  0.83287604  0.19583677    -0.01900
Br670      Br  0.58460496  0.81897975  0.22404880    -0.01900
C671        C  0.60115697  0.81527696  0.10887200    -0.03000
C672        C  0.59149949  0.85950178  0.11137188     0.06600
C673        C  0.62509331  0.89078756  0.10298018    -0.03100
C674        C  0.66492916  0.87848805  0.08697482    -0.03100
C675        C  0.67255565  0.83405767  0.07895047     0.06800
C676        C  0.64120572  0.80254328  0.09287382    -0.03300
Br677      Br  0.65195000  0.74145497  0.09116434    -0.01900
Br678      Br  0.56148505  0.77124851  0.13127612    -0.02000
Br679      Br  0.70687876  0.92571878  0.07407234    -0.01900
Br680      Br  0.61740323  0.95220044  0.10912186    -0.01900
C681        C  0.34456592  0.91193064  0.15859157    -0.03000
C682        C  0.33905406  0.93455989  0.19612164     0.06600
C683        C  0.36825144  0.92414403  0.22991743    -0.03100
C684        C  0.40740783  0.90390255  0.21786634    -0.03100
C685        C  0.41915103  0.90244265  0.17285408     0.06800
C686        C  0.38603397  0.91070912  0.14351337    -0.03300
Br687      Br  0.39594727  0.95364597  0.10119574    -0.01900
Br688      Br  0.30999662  0.85998371  0.16135298    -0.02000
Br689      Br  0.43855875  0.87121010  0.25991713    -0.01900
Br690      Br  0.35402342  0.93199018  0.28991204    -0.01900
C691        C  0.40386111  0.81130153  0.11918803    -0.03000
C692        C  0.42888684  0.84435291  0.09756832     0.06600
C693        C  0.41168651  0.86304796  0.05961924    -0.03100
C694        C  0.36850862  0.85591506  0.04910858    -0.03100
C695        C  0.34391942  0.82150133  0.06892861     0.06800
C696        C  0.36311754  0.79752456  0.10274156    -0.03300
Br697      Br  0.33092508  0.75130866  0.13193381    -0.01900
Br698      Br  0.42433116  0.78665463  0.17280571    -0.02000
Br699      Br  0.34278505  0.90120493  0.01450700    -0.01900
Br700      Br  0.44213072  0.90623803  0.02579045    -0.01900
C701        C  0.49621111  0.80177758  0.03472348    -0.03000
C702        C  0.51421446  0.84200004  0.05127343     0.06600
C703        C  0.52964080  0.87073067  0.01760531    -0.03100
C704        C  0.51575876  0.86634482  0.97429273    -0.03100
C705        C  0.50106576  0.82687756  0.95722420     0.06800
C706        C  0.49592117  0.79291708  0.98860549    -0.03300
Br707      Br  0.50585436  0.73493439  0.97080300    -0.01900
Br708      Br  0.47551700  0.75548756  0.07223291    -0.02000
Br709      Br  0.51680893  0.91672065  0.93898127    -0.01900
Br710      Br  0.57159338  0.91594218  0.02404155    -0.01900
C711        C  0.60514148  0.10923956  0.80557199    -0.03000
C712        C  0.58042229  0.08275124  0.83478543     0.06600
C713        C  0.60071026  0.04908496  0.85545127    -0.03100
C714        C  0.64563155  0.04618799  0.85485067    -0.03100
C715        C  0.67129243  0.07142912  0.82492381     0.06800
C716        C  0.64997165  0.10331540  0.79992073    -0.03300
Br717      Br  0.68106257  0.14158351  0.75995694    -0.01900
Br718      Br  0.57619838  0.15111519  0.77060049    -0.02000
Br719      Br  0.67026895  0.00924411  0.89830260    -0.01900
Br720      Br  0.56537929  0.00715562  0.88481199    -0.01900
C721        C  0.60367256  0.18080043  0.88582690    -0.03000
C722        C  0.58479525  0.14248502  0.90405774     0.06600
C723        C  0.61215004  0.11534913  0.92872143    -0.03100
C724        C  0.65612966  0.12575032  0.93377449    -0.03100
C725        C  0.67502763  0.16354133  0.91395473     0.06800
C726        C  0.64832237  0.19014894  0.88892566    -0.03300
Br727      Br  0.67174288  0.23789241  0.85528893    -0.01900
Br728      Br  0.56849519  0.22063653  0.85468162    -0.02000
Br729      Br  0.68993661  0.08475064  0.96742973    -0.01900
Br730      Br  0.59339666  0.06395466  0.96017770    -0.01900
C731        C  0.35967879  0.06681571  0.78621805    -0.03000
C732        C  0.33146366  0.04996303  0.81893466     0.06600
C733        C  0.34713832  0.04703021  0.86254258    -0.03100
C734        C  0.38756972  0.06428960  0.87330645    -0.03100
C735        C  0.41554858  0.08210960  0.84119920     0.06800
C736        C  0.40182291  0.08196628  0.79724206    -0.03300
Br737      Br  0.44033428  0.10333731  0.75206388    -0.01900
Br738      Br  0.34094360  0.07013969  0.72666945    -0.02000
Br739      Br  0.40276429  0.06315564  0.93382897    -0.01900
Br740      Br  0.31410980  0.02101009  0.91113528    -0.01900
C741        C  0.39877421  0.18573545  0.85731897    -0.03000
C742        C  0.42069815  0.16373186  0.89127093     0.06600
C743        C  0.39739354  0.15988013  0.93072017    -0.03100
C744        C  0.35309856  0.15299792  0.92784500    -0.03100
C745        C  0.33013072  0.17952899  0.89898979     0.06800
C746        C  0.35433808  0.19651199  0.86255823    -0.03300
Br747      Br  0.32717142  0.23088396  0.81894425    -0.01900
Br748      Br  0.43072118  0.20446230  0.80644604    -0.02000
Br749      Br  0.32652507  0.11490537  0.97091741    -0.01900
Br750      Br  0.39960228  0.20839682  0.96873999    -0.01900
C751        C  0.51978119  0.96117523  0.79100141    -0.03000
C752        C  0.49239016  0.93511802  0.81919232     0.06600
C753        C  0.45626585  0.95895210  0.83010774    -0.03100
C754        C  0.46555134  0.99860529  0.84864946    -0.03100
C755        C  0.49295695  0.02884792  0.82595002     0.06800
C756        C  0.51787875  0.00859387  0.79227186    -0.03300
Br757      Br  0.54075900  0.04293337  0.74468927    -0.01900
Br758      Br  0.54172759  0.93300124  0.74072568    -0.02000
Br759      Br  0.46402682  0.99494043  0.90914009    -0.01900
Br760      Br  0.41922396  0.97205294  0.78164221    -0.01900
C761        C  0.60697877  0.08253795  0.12506561    -0.03000
C762        C  0.58329117  0.10363714  0.15761777     0.06600
C763        C  0.60265428  0.10746037  0.19926796    -0.03100
C764        C  0.64418943  0.09140136  0.20722288    -0.03100
C765        C  0.66706185  0.07090955  0.17348253     0.06800
C766        C  0.64946902  0.07195920  0.13124728    -0.03300
Br767      Br  0.68277717  0.06269368  0.07848927    -0.01900
Br768      Br  0.58256257  0.05294986  0.07691806    -0.02000
Br769      Br  0.67072115  0.10303044  0.26267878    -0.01900
Br770      Br  0.57235582  0.13417887  0.24601380    -0.01900
C771        C  0.60135351  0.21998464  0.07659937    -0.03000
C772        C  0.59051399  0.19100044  0.11145212     0.06600
C773        C  0.62639967  0.18454926  0.13819616    -0.03100
C774        C  0.66735470  0.17989700  0.11889539    -0.03100
C775        C  0.67396905  0.19135595  0.07457419     0.06800
C776        C  0.64263962  0.21814392  0.05628605    -0.03300
Br777      Br  0.65505711  0.25093644  0.00383627    -0.01900
Br778      Br  0.57033166  0.27123378  0.06959426    -0.02000
Br779      Br  0.71576535  0.16970700  0.15566567    -0.01900
Br780      Br  0.62556028  0.21279423  0.19343416    -0.01900
C781        C  0.40645577  0.07280133  0.16794684    -0.03000
C782        C  0.42001520  0.11680216  0.17040597     0.06600
C783        C  0.38972030  0.14396672  0.19030693    -0.03100
C784        C  0.34640147  0.12817874  0.19598623    -0.03100
C785        C  0.33782237  0.08312607  0.19506061     0.06800
C786        C  0.37254774  0.05730221  0.19339222    -0.03300
Br787      Br  0.38441178  0.02827238  0.24616411    -0.01900
Br788      Br  0.39230215  0.05244889  0.11284718    -0.02000
Br789      Br  0.30085160  0.16651151  0.20699751    -0.01900
Br790      Br  0.40772664  0.19577515  0.21918265    -0.01900
C791        C  0.35136037  0.15674056  0.07767276    -0.03000
C792        C  0.33347775  0.19618899  0.08723362     0.06600
C793        C  0.36080937  0.22770377  0.10757031    -0.03100
C794        C  0.40547682  0.22023658  0.11365570    -0.03100
C795        C  0.42348014  0.18174568  0.09858065     0.06800
C796        C  0.39570188  0.15288457  0.07661829    -0.03300
Br797      Br  0.41653692  0.11839691  0.03178508    -0.01900
Br798      Br  0.31475730  0.10501843  0.07493672    -0.02000
Br799      Br  0.44238422  0.26349939  0.14088301    -0.01900
Br800      Br  0.33733636  0.27693587  0.13410450    -0.01900
C801        C  0.48925977  0.99180261  0.21272208    -0.03000
C802        C  0.49510272  0.96649578  0.17446359     0.06600
C803        C  0.49670016  0.98993040  0.13495129    -0.03100
C804        C  0.49479985  0.03471934  0.13248943    -0.03100
C805        C  0.49659668  0.06053099  0.16915921     0.06800
C806        C  0.49053251  0.03861798  0.21002372    -0.03300
Br807      Br  0.48470150  0.07189782  0.26189958    -0.01900
Br808      Br  0.49226297  0.96497363  0.26909532    -0.02000
Br809      Br  0.48544665  0.06066978  0.07718626    -0.01900
Br810      Br  0.50657428  0.96303497  0.08202672    -0.01900
C811        C  0.49556633  0.21102144  0.01459973    -0.03000
C812        C  0.50951146  0.17857261  0.04476386     0.06600
C813        C  0.52548662  0.14211195  0.02487030    -0.03100
C814        C  0.51032042  0.13003912  0.98407687    -0.03100
C815        C  0.50269013  0.16128621  0.95227090     0.06800
C816        C  0.49840191  0.20395812  0.96804879    -0.03300
Br817      Br  0.49247012  0.25118465  0.92746859    -0.01900
Br818      Br  0.47188143  0.26379275  0.03403739    -0.02000
Br819      Br  0.49665076  0.07089058  0.97428024    -0.01900
Br820      Br  0.58580922  0.14150809  0.02396321    -0.01900
C821        C  0.91989018  0.86805801  0.61081974    -0.03000
C822        C  0.89345295  0.83902300  0.58719504     0.06600
C823        C  0.87152036  0.80505983  0.61048023    -0.03100
C824        C  0.87809504  0.79875526  0.65590796    -0.03100
C825        C  0.90708900  0.82652532  0.67923811     0.06800
C826        C  0.92800403  0.86149014  0.65552919    -0.03300
Br827      Br  0.97079731  0.90068569  0.68143728    -0.01900
Br828      Br  0.94271039  0.92018168  0.58269985    -0.02000
Br829      Br  0.84824423  0.75025472  0.68429234    -0.01900
Br830      Br  0.83068769  0.76777911  0.58016680    -0.01900
C831        C  0.85038930  0.94599325  0.59597909    -0.03000
C832        C  0.83301333  0.90705094  0.57936113     0.06600
C833        C  0.80632883  0.88253886  0.60824552    -0.03100
C834        C  0.80996414  0.88928545  0.65370708    -0.03100
C835        C  0.84069731  0.92034604  0.66935840     0.06800
C836        C  0.86446861  0.94505448  0.63901529    -0.03300
Br837      Br  0.91016119  0.98315100  0.65732575    -0.01900
Br838      Br  0.81012070  0.99060997  0.59602639    -0.02000
Br839      Br  0.77670139  0.85327720  0.69365320    -0.01900
Br840      Br  0.76049533  0.84715173  0.58472393    -0.01900
C841        C  0.86494812  0.90851282  0.34769604    -0.03000
C842        C  0.82651482  0.89875928  0.32503798     0.06600
C843        C  0.78909545  0.88774679  0.35026500    -0.03100
C844        C  0.79257058  0.88350399  0.39650509    -0.03100
C845        C  0.83261165  0.89397467  0.41634637     0.06800
C846        C  0.86176287  0.91853840  0.39125813    -0.03300
Br847      Br  0.84628652  0.97719323  0.39043072    -0.01900
Br848      Br  0.91852293  0.92437456  0.32004090    -0.02000
Br849      Br  0.74329876  0.86678984  0.43153454    -0.01900
Br850      Br  0.73435352  0.87918518  0.32237103    -0.01900
C851        C  0.84269792  0.80369094  0.39108390    -0.03000
C852        C  0.87445893  0.80793245  0.42352831     0.06600
C853        C  0.91057119  0.78413648  0.41359818    -0.03100
C854        C  0.92511507  0.78499516  0.36991514    -0.03100
C855        C  0.89992242  0.80242879  0.33690870     0.06800
C856        C  0.85561674  0.80288857  0.34655918    -0.03300
Br857      Br  0.81398363  0.79337614  0.30128538    -0.01900
Br858      Br  0.78956953  0.77521555  0.40821659    -0.02000
Br859      Br  0.96621330  0.74612160  0.35123223    -0.01900
Br860      Br  0.91670530  0.73102156  0.44517682    -0.01900
C861        C  0.86589163  0.20574904  0.65225808    -0.03000
C862        C  0.90765920  0.20502195  0.67022171     0.06600
C863        C  0.94153435  0.20678403  0.64119107    -0.03100
C864        C  0.93504790  0.18855731  0.60086066    -0.03100
C865        C  0.89508154  0.18572057  0.58076406     0.06800
C866        C  0.86100517  0.20187097  0.60602312    -0.03300
Br867      Br  0.81580978  0.23094310  0.57732862    -0.01900
Br868      Br  0.81691740  0.21244834  0.68921795    -0.02000
Br869      Br  0.97530840  0.15092830  0.58779599    -0.01900
Br870      Br  0.99726058  0.23001572  0.65774159    -0.01900
C871        C  0.80903099  0.10477927  0.59922402    -0.03000
C872        C  0.84998075  0.10028219  0.57856906     0.06600
C873        C  0.88119628  0.08126080  0.60442699    -0.03100
C874        C  0.87472285  0.07456503  0.64935151    -0.03100
C875        C  0.83305077  0.06801700  0.66705822     0.06800
C876        C  0.79978863  0.08565037  0.64156851    -0.03300
Br877      Br  0.74283158  0.08760595  0.66562292    -0.01900
Br878      Br  0.76528494  0.13713669  0.57136097    -0.02000
Br879      Br  0.92363540  0.08448382  0.68601807    -0.01900
Br880      Br  0.92864823  0.05420928  0.57819724    -0.01900
C881        C  0.92729927  0.22975468  0.40353730    -0.03000
C882        C  0.89392298  0.19862335  0.41433281     0.06600
C883        C  0.86502129  0.19277828  0.37922295    -0.03100
C884        C  0.88150881  0.19074083  0.33615688    -0.03100
C885        C  0.92388913  0.20628118  0.32802702     0.06800
C886        C  0.93916944  0.23626830  0.35861748    -0.03300
Br887      Br  0.94430254  0.29424551  0.33505821    -0.01900
Br888      Br  0.93644612  0.27750981  0.44117228    -0.02000
Br889      Br  0.84451505  0.17424756  0.28902745    -0.01900
Br890      Br  0.80780036  0.21128560  0.38708260    -0.01900
C891        C  0.89003711  0.10040088  0.37911706    -0.03000
C892        C  0.85791220  0.10718729  0.41077407     0.06600
C893        C  0.81496045  0.09711970  0.39958125    -0.03100
C894        C  0.80514814  0.07428297  0.36128400    -0.03100
C895        C  0.83857870  0.06236219  0.33268437     0.06800
C896        C  0.88144605  0.07583295  0.34220736    -0.03300
Br897      Br  0.93125841  0.05998910  0.30758238    -0.01900
Br898      Br  0.94744338  0.12349817  0.38441041    -0.02000
Br899      Br  0.74557370  0.05815369  0.35089906    -0.01900
Br900      Br  0.76906537  0.12171568  0.43195398    -0.01900
C901        C  0.81196303  0.02586778  0.49735339    -0.03000
C902        C  0.85235117  0.04921955  0.48976045     0.06600
C903        C  0.88655087  0.02146158  0.47902641    -0.03100
C904        C  0.88393513  0.97689445  0.48809425    -0.03100
C905        C  0.84446488  0.95425363  0.49325118     0.06800
C906        C  0.80796077  0.97939685  0.49594592    -0.03300
Br907      Br  0.75309634  0.94948528  0.50397108    -0.01900
Br908      Br  0.76018197  0.05350983  0.51048452    -0.02000
Br909      Br  0.93586353  0.94689227  0.48526240    -0.01900
Br910      Br  0.92771776  0.03154604  0.43291871    -0.01900
C911        C  0.13860529  0.06035990  0.64521227    -0.03000
C912        C  0.17137989  0.08380200  0.66810026     0.06600
C913        C  0.20008390  0.11150977  0.64365135    -0.03100
C914        C  0.19527932  0.11604144  0.59796429    -0.03100
C915        C  0.16178758  0.09379334  0.57586536     0.06800
C916        C  0.13683540  0.06260264  0.59965813    -0.03300
Br917      Br  0.10511000  0.01662775  0.57194850    -0.01900
Br918      Br  0.09471036  0.02306664  0.67384556    -0.02000
Br919      Br  0.23685463  0.15016141  0.56440862    -0.01900
Br920      Br  0.24584698  0.14443512  0.67125495    -0.01900
C921        C  0.06880273  0.14372211  0.64271451    -0.03000
C922        C  0.09107549  0.17637607  0.66708480     0.06600
C923        C  0.12348340  0.20222557  0.64548748    -0.03100
C924        C  0.13122219  0.19702958  0.60041000    -0.03100
C925        C  0.10758511  0.16542875  0.57683852     0.06800
C926        C  0.07666822  0.13939379  0.59819603    -0.03300
Br927      Br  0.04781106  0.09431948  0.56566646    -0.01900
Br928      Br  0.02903281  0.10096926  0.66833769    -0.02000
Br929      Br  0.17257111  0.23484119  0.57026747    -0.01900
Br930      Br  0.15972702  0.24299099  0.67657756    -0.01900
C931        C  0.12687457  0.18019649  0.33696231    -0.03000
C932        C  0.08528507  0.19692443  0.33468192     0.06600
C933        C  0.07493841  0.22487938  0.36908179    -0.03100
C934        C  0.09666839  0.22165506  0.40949480    -0.03100
C935        C  0.12657884  0.18915638  0.41449394     0.06800
C936        C  0.14985278  0.18320076  0.37622746    -0.03300
Br937      Br  0.20105850  0.21988904  0.37247932    -0.01900
Br938      Br  0.15951445  0.17244242  0.28517424    -0.02000
Br939      Br  0.10230965  0.27095553  0.44640089    -0.01900
Br940      Br  0.04216033  0.27375061  0.35801893    -0.01900
C941        C  0.16076795  0.06868583  0.39074743    -0.03000
C942        C  0.17646381  0.10421157  0.41523358     0.06600
C943        C  0.21795810  0.12178808  0.40341122    -0.03100
C944        C  0.23337966  0.11428838  0.36037364    -0.03100
C945        C  0.21260428  0.08099148  0.33674380     0.06800
C946        C  0.18775336  0.05133796  0.36096980    -0.03300
Br947      Br  0.21573343  0.00099008  0.38007523    -0.01900
Br948      Br  0.10360534  0.06102287  0.37111373    -0.02000
Br949      Br  0.28212265  0.14575079  0.33595013    -0.01900
Br950      Br  0.25154463  0.15528248  0.44407528    -0.01900
C951        C  0.03515734  0.21574625  0.51665750    -0.03000
C952        C  0.05660295  0.18332048  0.49164497     0.06600
C953        C  0.02803923  0.15959623  0.46507147    -0.03100
C954        C  0.98448608  0.15548208  0.47504233    -0.03100
C955        C  0.96145640  0.18746604  0.49516264     0.06800
C956        C  0.98860456  0.22013251  0.51497311    -0.03300
Br957      Br  0.96314760  0.26820473  0.54362935    -0.01900
Br958      Br  0.06696350  0.25738455  0.55044954    -0.02000
Br959      Br  0.96973681  0.09891274  0.49131283    -0.01900
Br960      Br  0.04443263  0.12916257  0.41507734    -0.01900
C961        C  0.03874970  0.80177112  0.64365196    -0.03000
C962        C  0.06691415  0.78874514  0.67461182     0.06600
C963        C  0.10931265  0.78173357  0.66060056    -0.03100
C964        C  0.12110111  0.79052086  0.61604608    -0.03100
C965        C  0.09551984  0.81780061  0.59000204     0.06800
C966        C  0.05390852  0.82274156  0.60611693    -0.03300
Br967      Br  0.01839603  0.86248833  0.58325804    -0.01900
Br968      Br  0.98299279  0.77498818  0.64636084    -0.02000
Br969      Br  0.16104119  0.75391877  0.58868405    -0.01900
Br970      Br  0.14890510  0.75705801  0.70006386    -0.01900
C971        C  0.19287454  0.87467479  0.60494220    -0.03000
C972        C  0.15949764  0.89496359  0.58139464     0.06600
C973        C  0.14481716  0.93245599  0.60103198    -0.03100
C974        C  0.17187289  0.95467986  0.63061300    -0.03100
C975        C  0.19114516  0.92993374  0.66193545     0.06800
C976        C  0.20353205  0.88864183  0.64825914    -0.03300
Br977      Br  0.23319791  0.85191184  0.68740873    -0.01900
Br978      Br  0.22894783  0.83525453  0.57623183    -0.02000
Br979      Br  0.21268162  0.99829310  0.61121935    -0.01900
Br980      Br  0.08946948  0.92453583  0.62674619    -0.01900
C981        C  0.06301415  0.75210341  0.37362506    -0.03000
C982        C  0.08047546  0.77869398  0.34009335     0.06600
C983        C  0.12348141  0.79193160  0.34738920    -0.03100
C984        C  0.13885866  0.79288611  0.39101824    -0.03100
C985        C  0.10881239  0.79198472  0.42613812     0.06800
C986        C  0.07451157  0.76142139  0.41790863    -0.03300
Br987      Br  0.06493849  0.71574328  0.45910828    -0.01900
Br988      Br  0.05260960  0.69267811  0.35650258    -0.02000
Br989      Br  0.19550084  0.77401940  0.40216170    -0.01900
Br990      Br  0.16194211  0.79982832  0.29874301    -0.01900
C991        C  0.12409855  0.88474210  0.38266646    -0.03000
C992        C  0.15292517  0.87895999  0.41739981     0.06600
C993        C  0.19746087  0.88074699  0.40834207    -0.03100
C994        C  0.21244708  0.89113278  0.36592527    -0.03100
C995        C  0.18357631  0.90514132  0.33413834     0.06800
C996        C  0.13896562  0.90362731  0.34397434    -0.03300
Br997      Br  0.09566134  0.93121072  0.30926455    -0.01900
Br998      Br  0.06304211  0.86913676  0.38641331    -0.02000
Br999      Br  0.27233498  0.88813030  0.35271137    -0.01900
Br1000     Br  0.23760054  0.86241898  0.45167405    -0.01900
C1001       C  0.19057144  0.97044175  0.50406115    -0.03000
C1002       C  0.15280821  0.94616717  0.49005149     0.06600
C1003       C  0.12185292  0.97366677  0.47059476    -0.03100
C1004       C  0.12197185  0.01858707  0.47618643    -0.03100
C1005       C  0.15838747  0.04247915  0.48969557     0.06800
C1006       C  0.19407596  0.01746543  0.50108614    -0.03300
Br1007     Br  0.24795491  0.04781147  0.51077723    -0.01900
Br1008     Br  0.24002390  0.94083985  0.52339796    -0.02000
Br1009     Br  0.06706643  0.04468478  0.47330992    -0.01900
Br1010     Br  0.08951167  0.96258058  0.41987565    -0.01900
C1011       C  0.01088509  0.78148269  0.52288000    -0.03000
C1012       C  0.03887231  0.81340648  0.50206455     0.06600
C1013       C  0.01755169  0.84693331  0.48076850    -0.03100
C1014       C  0.97358669  0.84466237  0.47181437    -0.03100
C1015       C  0.94477295  0.81974772  0.49882109     0.06800
C1016       C  0.96477395  0.78620422  0.52332468    -0.03300
Br1017     Br  0.93001574  0.74225326  0.55246106    -0.01900
Br1018     Br  0.03453752  0.73457765  0.55616045    -0.02000
Br1019     Br  0.95803377  0.87443957  0.41895572    -0.01900
Br1020     Br  0.03858620  0.90467582  0.48809344    -0.01900
loop_ 
_geom_bond_atom_site_label_1 
_geom_bond_atom_site_label_2 
_geom_bond_distance 
_geom_bond_site_symmetry_2 
_ccdc_geom_bond_type 
C1            C2   1.445       .  A
C1            C6   1.464       .  A
C1          C985   1.589       .  S
C2            C3   1.465       .  A
C2         C1012   1.561       .  S
C3            C4   1.476       .  A
C3          C965   1.538       .  S
C4            C5   1.467       .  A
C4          C972   1.547       .  S
C5            C6   1.464       .  A
C5         C1002   1.608       .  S
C6          C992   1.487       .  S
C7            C8   1.475       .  A
C7           C12   1.454       .  A
C7          C935   1.541       .  S
C8            C9   1.437       .  A
C8          C942   1.499       .  S
C9           C10   1.418       .  A
C9         C1005   1.555       .  S
C10          C11   1.450       .  A
C10         C915   1.516       .  S
C11          C12   1.439       .  A
C11         C925   1.485       .  S
C12         C952   1.588       .  S
C13          C14   1.466       .  A
C13          C18   1.458       .  A
C13         C892   1.509       .  S
C14          C15   1.452       .  A
C14         C882   1.574       .  S
C15          C16   1.469       .  A
C15         C955   1.577       .  S
C16          C17   1.470       .  A
C16         C865   1.540       .  S
C17          C18   1.464       .  A
C17         C872   1.546       .  S
C18         C902   1.587       .  S
C19          C20   1.462       .  A
C19          C24   1.442       .  A
C19         C822   1.510       .  S
C20          C21   1.456       .  A
C20        C1015   1.568       .  S
C21          C22   1.463       .  A
C21         C852   1.550       .  S
C22          C23   1.439       .  A
C22         C845   1.505       .  S
C23          C24   1.411       .  A
C23         C905   1.530       .  S
C24         C832   1.524       .  S
C25          C26   1.464       .  A
C25          C30   1.463       .  A
C25         C772   1.576       .  S
C26          C27   1.463       .  A
C26         C812   1.553       .  S
C27          C28   1.459       .  A
C27         C795   1.527       .  S
C28          C29   1.443       .  A
C28         C782   1.543       .  S
C29          C30   1.450       .  A
C29         C805   1.538       .  S
C30         C762   1.529       .  S
C31          C32   1.451       .  A
C31          C36   1.442       .  A
C31         C722   1.531       .  S
C32          C33   1.449       .  A
C32         C815   1.530       .  S
C33          C34   1.462       .  A
C33         C742   1.562       .  S
C34          C35   1.459       .  A
C34         C735   1.507       .  S
C35          C36   1.442       .  A
C35         C755   1.572       .  S
C36         C712   1.520       .  S
C37          C38   1.457       .  A
C37          C42   1.472       .  A
C37         C662   1.571       .  S
C38          C39   1.445       .  A
C38         C802   1.548       .  S
C39          C40   1.460       .  A
C39         C685   1.531       .  S
C40          C41   1.442       .  A
C40         C692   1.519       .  S
C41          C42   1.459       .  A
C41         C702   1.580       .  S
C42         C672   1.514       .  S
C43          C44   1.480       .  A
C43          C48   1.484       .  A
C43         C622   1.537       .  S
C44          C45   1.460       .  A
C44         C752   1.597       .  S
C45          C46   1.465       .  A
C45         C645   1.528       .  S
C46          C47   1.454       .  A
C46         C652   1.565       .  S
C47          C48   1.454       .  A
C47         C705   1.551       .  S
C48         C635   1.564       .  S
C49          C50   1.430       .  A
C49          C54   1.444       .  A
C49         C565   1.506       .  S
C50          C51   1.434       .  A
C50         C612   1.543       .  S
C51          C52   1.469       .  A
C51         C585   1.522       .  S
C52          C53   1.456       .  A
C52         C595   1.539       .  S
C53          C54   1.442       .  A
C53         C602   1.556       .  S
C54         C572   1.522       .  S
C55          C56   1.444       .  A
C55          C60   1.476       .  A
C55         C512   1.513       .  S
C56          C57   1.430       .  A
C56         C522   1.558       .  S
C57          C58   1.447       .  A
C57         C605   1.532       .  S
C58          C59   1.472       .  A
C58         C545   1.538       .  S
C59          C60   1.493       .  A
C59         C532   1.580       .  S
C60         C552   1.592       .  S
C61          C62   1.448       .  A
C61          C66   1.449       .  A
C61         C482   1.511       .  S
C62          C63   1.465       .  A
C62         C555   1.592       .  S
C63          C64   1.469       .  A
C63         C465   1.526       .  S
C64          C65   1.456       .  A
C64         C475   1.557       .  S
C65          C66   1.433       .  A
C65         C505   1.556       .  S
C66         C492   1.521       .  S
C67          C68   1.469       .  A
C67          C72   1.462       .  A
C67         C422   1.570       .  S
C68          C69   1.475       .  A
C68         C615   1.575       .  S
C69          C70   1.472       .  A
C69         C442   1.553       .  S
C70          C71   1.437       .  A
C70         C452   1.527       .  S
C71          C72   1.433       .  A
C71         C502   1.540       .  S
C72         C432   1.524       .  S
O73          C81   1.271       .  A
O73         Co93   1.948       .  S
O74          C82   1.277       .  A
O74         Co94   1.996   1_545  S
O75          C83   1.250       .  A
O75         Co95   2.038       .  S
O76          C84   1.258       .  A
O76         Co96   2.042       .  S
O77          C83   1.247       .  A
O77         Co94   1.967       .  S
O78          C84   1.258       .  A
O78         Co93   2.011   1_545  S
O79          C82   1.299       .  A
O79         Co96   2.074       .  S
O80          C81   1.286       .  A
O80         Co95   2.038       .  S
C81         C342   1.459       .  S
C82         C258   1.498       .  S
C83         C170   1.484       .  S
C84         C110   1.516       .  S
O85          C98   1.293       .  A
O85         Co93   2.071   1_545  S
O86          C99   1.325       .  A
O86         Co94   2.169       .  S
O87         C100   1.265       .  A
O87         Co95   2.003       .  S
O88         C101   1.264       .  A
O88         Co96   2.053       .  S
O89         C101   1.230       .  A
O89         Co94   1.938   1_545  S
O90         C100   1.261       .  A
O90         Co93   2.011       .  S
O91          C98   1.286       .  A
O91         Co96   1.922       .  S
O92          C99   1.283       .  A
O92         Co95   1.886       .  S
Co93         O97   2.058       .  S
Co94         O97   2.054       .  S
Co95         O97   2.019       .  S
Co96         O97   2.014   1_545  S
C98         C912   1.501       .  S
C99         C642   1.510       .  S
C100        C975   1.500       .  S
C101        C732   1.502       .  S
O102        C110   1.253       .  A
O102       Co122   2.021   1_455  S
O103        C111   1.278       .  A
O103       Co123   1.988   1_655  S
O104        C112   1.283       .  A
O104       Co124   2.015       .  S
O105        C113   1.243       .  A
O105       Co125   2.020       .  S
O106        C112   1.290       .  A
O106       Co123   2.013       .  S
O107        C113   1.237       .  A
O107       Co122   1.967       .  S
O108        C111   1.273       .  A
O108       Co125   2.000       .  S
O109        C110   1.256       .  A
O109       Co124   2.032       .  S
C111        C314   1.467       .  S
C112        C256   1.480       .  S
C113        C371   1.473       .  S
O114        C127   1.325       .  A
O114       Co122   2.157       .  S
O115        C128   1.254       .  A
O115       Co123   1.978       .  S
O116        C129   1.282       .  A
O116       Co124   1.912       .  S
O117        C130   1.260       .  A
O117       Co125   1.970       .  S
O118        C130   1.281       .  A
O118       Co123   2.076   1_655  S
O119        C129   1.294       .  A
O119       Co122   2.069   1_455  S
O120        C127   1.277       .  A
O120       Co125   1.882       .  S
O121        C128   1.269       .  A
O121       Co124   2.010       .  S
Co122       O126   2.089       .  S
Co123       O126   2.035   1_455  S
Co124       O126   2.021   1_455  S
Co125       O126   2.020       .  S
C127        C862   1.488       .  S
C128        C582   1.496       .  S
C129        C922   1.502       .  S
C130        C445   1.509       .  S
O131        C139   1.251       .  A
O131       Co151   1.956       .  S
O132        C140   1.287       .  A
O132       Co152   2.035   1_655  S
O133        C141   1.247       .  A
O133       Co153   1.996       .  S
O134        C142   1.261       .  A
O134       Co154   2.030       .  S
O135        C141   1.252       .  A
O135       Co152   1.962       .  S
O136        C142   1.236       .  A
O136       Co151   1.943   1_655  S
O137        C140   1.283       .  A
O137       Co154   2.044       .  S
O138        C139   1.290       .  A
O138       Co153   2.066       .  S
C139        C226   1.496       .  S
C140        C402   1.520       .  S
C141        C171   1.475       .  S
C142        C286   1.479       .  S
O143        C156   1.318       .  A
O143       Co151   2.141   1_655  S
O144        C157   1.307       .  A
O144       Co152   2.122       .  S
O145        C158   1.256       .  A
O145       Co153   2.001       .  S
O146        C159   1.269       .  A
O146       Co154   2.033       .  S
O147        C159   1.233       .  A
O147       Co152   1.898   1_655  S
O148        C158   1.267       .  A
O148       Co151   2.050       .  S
O149        C156   1.277       .  A
O149       Co154   1.882       .  S
O150        C157   1.279       .  A
O150       Co153   1.900       .  S
Co151       O155   2.114       .  S
Co152       O155   2.094       .  S
Co153       O155   2.018       .  S
Co154       O155   2.016   1_655  S
C156        C855   1.499       .  S
C157        C515   1.515       .  S
C158        C982   1.525       .  S
C159        C462   1.512       .  S
O160        C168   1.280       .  A
O160       Co180   2.013       .  S
O161        C169   1.255       .  A
O161       Co181   2.011       .  S
O162        C170   1.267       .  A
O162       Co182   1.980   1_556  S
O163        C171   1.242       .  A
O163       Co183   1.986       .  S
O164        C170   1.287       .  A
O164       Co181   2.044       .  S
O165        C171   1.239       .  A
O165       Co180   1.978       .  S
O166        C169   1.252       .  A
O166       Co183   1.998   1_556  S
O167        C168   1.286       .  A
O167       Co182   2.011       .  S
C168        C229   1.475       .  S
C169        C345   1.496       .  S
O172        C185   1.281       .  A
O172       Co180   1.972       .  S
O173        C186   1.253       .  A
O173       Co181   1.979       .  S
O174        C187   1.252       .  A
O174       Co182   1.974       .  S
O175        C188   1.291       .  A
O175       Co183   2.056   1_556  S
O176        C188   1.275       .  A
O176       Co181   1.938       .  S
O177        C187   1.270       .  A
O177       Co180   2.017       .  S
O178        C185   1.286       .  A
O178       Co183   2.060       .  S
O179        C186   1.279       .  A
O179       Co182   2.077   1_556  S
Co180       O184   2.045       .  S
Co181       O184   2.020   1_556  S
Co182       O184   2.039       .  S
Co183       O184   2.130       .  S
C185        C525   1.511       .  S
C186        C655   1.520       .  S
C187        C695   1.499       .  S
C188        C575   1.500       .  S
O189        C197   1.284       .  A
O189       Co209   2.031       .  S
O190        C198   1.232       .  A
O190       Co210   1.968       .  S
O191        C199   1.268       .  A
O191       Co211   2.012   1_655  S
O192        C200   1.254       .  A
O192       Co212   1.988       .  S
O193        C199   1.288       .  A
O193       Co210   2.047       .  S
O194        C200   1.248       .  A
O194       Co209   1.993       .  S
O195        C198   1.262       .  A
O195       Co212   2.058   1_655  S
O196        C197   1.269       .  A
O196       Co211   1.986       .  S
C197        C228   1.487       .  S
C198        C316   1.500       .  S
C199        C284   1.502       .  S
C200        C257   1.480       .  S
O201        C214   1.276       .  A
O201       Co209   1.934       .  S
O202        C215   1.263       .  A
O202       Co210   1.987       .  S
O203        C216   1.270       .  A
O203       Co211   2.049       .  S
O204        C217   1.284       .  A
O204       Co212   2.045   1_655  S
O205        C217   1.285       .  A
O205       Co210   1.979       .  S
O206        C216   1.258       .  A
O206       Co209   1.986       .  S
O207        C214   1.307       .  A
O207       Co212   2.112       .  S
O208        C215   1.280       .  A
O208       Co211   2.067   1_655  S
Co209       O213   2.016       .  S
Co210       O213   2.005   1_655  S
Co211       O213   2.104       .  S
Co212       O213   2.188       .  S
C214        C535   1.509       .  S
C215        C885   1.512       .  S
C216        C932   1.510       .  S
C217        C485   1.517       .  S
O218        C226   1.246       .  A
O218       Co238   2.021       .  S
O219        C227   1.299       .  A
O219       Co239   2.081       .  S
O220        C228   1.247       .  A
O220       Co240   1.990       .  S
O221        C229   1.271       .  A
O221       Co241   1.975   1_565  S
O222        C228   1.244       .  A
O222       Co239   1.997       .  S
O223        C229   1.289       .  A
O223       Co238   2.037       .  S
O224        C227   1.271       .  A
O224       Co241   1.975       .  S
O225        C226   1.261       .  A
O225       Co240   1.992   1_565  S
C227        C255   1.499       .  S
O230        C243   1.257       .  A
O230       Co238   1.982       .  S
O231        C244   1.286       .  A
O231       Co239   1.912       .  S
O232        C245   1.285       .  A
O232       Co240   2.040   1_565  S
O233        C246   1.266       .  A
O233       Co241   2.032       .  S
O234        C246   1.247       .  A
O234       Co239   1.944       .  S
O235        C245   1.284       .  A
O235       Co238   1.918       .  S
O236        C243   1.278       .  A
O236       Co241   2.011   1_565  S
O237        C244   1.300       .  A
O237       Co240   2.065       .  S
Co238       O242   2.041   1_565  S
Co239       O242   2.029       .  S
Co240       O242   2.089       .  S
Co241       O242   2.049       .  S
C243        C682   1.496       .  S
C244        C945   1.483       .  S
C245        C995   1.477       .  S
C246        C785   1.471       .  S
O247        C255   1.254       .  A
O247       Co267   2.002   1_554  S
O248        C256   1.272       .  A
O248       Co268   1.980       .  S
O249        C257   1.296       .  A
O249       Co269   2.053       .  S
O250        C258   1.247       .  A
O250       Co270   2.012       .  S
O251        C257   1.277       .  A
O251       Co268   1.977   1_554  S
O252        C258   1.261       .  A
O252       Co267   2.019       .  S
O253        C256   1.290       .  A
O253       Co270   2.039       .  S
O254        C255   1.245       .  A
O254       Co269   2.020       .  S
O259        C272   1.290       .  A
O259       Co267   2.068       .  S
O260        C273   1.264       .  A
O260       Co268   2.002   1_554  S
O261        C274   1.286       .  A
O261       Co269   1.924       .  S
O262        C275   1.264       .  A
O262       Co270   1.965       .  S
O263        C275   1.275       .  A
O263       Co268   2.035       .  S
O264        C274   1.315       .  A
O264       Co267   2.124   1_554  S
O265        C272   1.287       .  A
O265       Co270   1.976       .  S
O266        C273   1.263       .  A
O266       Co269   1.990       .  S
Co267       O271   2.086       .  S
Co268       O271   2.038       .  S
Co269       O271   2.034   1_554  S
Co270       O271   2.040       .  S
C272        C745   1.527       .  S
C273        C542   1.505       .  S
C274        C792   1.517       .  S
C275        C592   1.482       .  S
O276        C284   1.267       .  A
O276       Co296   2.007       .  S
O277        C285   1.277       .  A
O277       Co297   2.037       .  S
O278        C286   1.278       .  A
O278       Co298   1.899       .  S
O279        C287   1.274       .  A
O279       Co299   1.986   1_545  S
O280        C286   1.293       .  A
O280       Co297   2.105       .  S
O281        C287   1.276       .  A
O281       Co296   2.004       .  S
O282        C285   1.264       .  A
O282       Co299   2.018       .  S
O283        C284   1.286       .  A
O283       Co298   2.022   1_545  S
C285        C400   1.511       .  S
C287        C313   1.465       .  S
O288        C301   1.257       .  A
O288       Co296   1.969       .  S
O289        C302   1.271       .  A
O289       Co297   1.914       .  S
O290        C303   1.266       .  A
O290       Co298   1.974   1_545  S
O291        C304   1.283       .  A
O291       Co299   2.070       .  S
O292        C304   1.261       .  A
O292       Co297   1.971       .  S
O293        C303   1.259       .  A
O293       Co296   1.956       .  S
O294        C301   1.262       .  A
O294       Co299   1.986   1_545  S
O295        C302   1.290       .  A
O295       Co298   2.104       .  S
Co296       O300   2.061       .  S
Co297       O300   2.026   1_565  S
Co298       O300   1.972   1_565  S
Co299       O300   2.010   1_565  S
C301        C765   1.507       .  S
C302        C842   1.482       .  S
C303        C895   1.484       .  S
C304        C665   1.500       .  S
O305        C313   1.267       .  A
O305       Co325   2.020       .  S
O306        C314   1.282       .  A
O306       Co326   2.034       .  S
O307        C315   1.250       .  A
O307       Co327   2.005   1_556  S
O308        C316   1.277       .  A
O308       Co328   1.989   1_554  S
O309        C315   1.256       .  A
O309       Co326   2.060       .  S
O310        C316   1.285       .  A
O310       Co325   2.055       .  S
O311        C314   1.260       .  A
O311       Co328   1.957       .  S
O312        C313   1.251       .  A
O312       Co327   1.954       .  S
C315        C373   1.510       .  S
O317        C330   1.240       .  A
O317       Co325   1.940       .  S
O318        C331   1.284       .  A
O318       Co326   1.939       .  S
O319        C332   1.274       .  A
O319       Co327   2.075       .  S
O320        C333   1.287       .  A
O320       Co328   2.071       .  S
O321        C333   1.267       .  A
O321       Co326   1.976       .  S
O322        C332   1.247       .  A
O322       Co325   1.971       .  S
O323        C330   1.249       .  A
O323       Co328   1.981   1_554  S
O324        C331   1.289       .  A
O324       Co327   2.066   1_556  S
Co325       O329   2.080       .  S
Co326       O329   2.063   1_556  S
Co327       O329   2.095       .  S
Co328       O329   2.076   1_556  S
C330        C495   1.456       .  S
C331        C725   1.506       .  S
C332        C775   1.511       .  S
C333        C455   1.508       .  S
O334        C342   1.271       .  A
O334       Co354   2.023       .  S
O335        C343   1.290       .  A
O335       Co355   2.056       .  S
O336        C344   1.258       .  A
O336       Co356   2.010   1_655  S
O337        C345   1.252       .  A
O337       Co357   1.997       .  S
O338        C344   1.252       .  A
O338       Co355   2.005       .  S
O339        C345   1.252       .  A
O339       Co354   2.001       .  S
O340        C343   1.261       .  A
O340       Co357   1.981   1_655  S
O341        C342   1.263       .  A
O341       Co356   1.958       .  S
C343        C401   1.498       .  S
C344        C374   1.500       .  S
O346        C359   1.271       .  A
O346       Co354   1.876       .  S
O347        C360   1.281       .  A
O347       Co355   1.926       .  S
O348        C361   1.270       .  A
O348       Co356   2.028       .  S
O349        C362   1.270       .  A
O349       Co357   2.051   1_655  S
O350        C362   1.260       .  A
O350       Co355   2.006       .  S
O351        C361   1.259       .  A
O351       Co354   1.977       .  S
O352        C359   1.314       .  A
O352       Co357   2.116       .  S
O353        C360   1.294       .  A
O353       Co356   2.081   1_655  S
Co354       O358   2.022       .  S
Co355       O358   2.016   1_655  S
Co356       O358   2.094       .  S
Co357       O358   2.109       .  S
C359        C562   1.473       .  S
C360        C825   1.519       .  S
C361        C962   1.491       .  S
C362        C425   1.527       .  S
O363        C371   1.271       .  A
O363       Co383   1.976   1_545  S
O364        C372   1.263       .  A
O364       Co384   2.003       .  S
O365        C373   1.255       .  A
O365       Co385   2.050       .  S
O366        C374   1.282       .  A
O366       Co386   2.041       .  S
O367        C373   1.251       .  A
O367       Co384   2.007   1_545  S
O368        C374   1.269       .  A
O368       Co383   1.998       .  S
O369        C372   1.267       .  A
O369       Co386   2.006       .  S
O370        C371   1.283       .  A
O370       Co385   2.032       .  S
C372        C403   1.483       .  S
O375        C388   1.270       .  A
O375       Co383   2.044       .  S
O376        C389   1.308       .  A
O376       Co384   2.122   1_545  S
O377        C390   1.277       .  A
O377       Co385   2.011       .  S
O378        C391   1.249       .  A
O378       Co386   1.966       .  S
O379        C391   1.275       .  A
O379       Co384   2.061       .  S
O380        C390   1.278       .  A
O380       Co383   2.043   1_545  S
O381        C388   1.239       .  A
O381       Co386   1.920       .  S
O382        C389   1.284       .  A
O382       Co385   1.922       .  S
Co383       O387   2.094       .  S
Co384       O387   2.106       .  S
Co385       O387   2.055   1_545  S
Co386       O387   2.089       .  S
C388        C835   1.473       .  S
C389        C715   1.526       .  S
C390        C875   1.546       .  S
C391        C625   1.501       .  S
O392        C400   1.283       .  A
O392       Co412   2.026       .  S
O393        C401   1.281       .  A
O393       Co413   2.015   1_556  S
O394        C402   1.283       .  A
O394       Co414   2.077       .  S
O395        C403   1.273       .  A
O395       Co415   2.026       .  S
O396        C402   1.265       .  A
O396       Co413   1.994       .  S
O397        C403   1.267       .  A
O397       Co412   1.973   1_556  S
O398        C401   1.264       .  A
O398       Co415   2.012       .  S
O399        C400   1.268       .  A
O399       Co414   2.018       .  S
O404        C417   1.278       .  A
O404       Co412   2.060   1_556  S
O405        C418   1.277       .  A
O405       Co413   2.070       .  S
O406        C419   1.259       .  A
O406       Co414   1.977       .  S
O407        C420   1.257       .  A
O407       Co415   1.969       .  S
O408        C420   1.258       .  A
O408       Co413   1.977   1_556  S
O409        C419   1.253       .  A
O409       Co412   1.966       .  S
O410        C417   1.255       .  A
O410       Co415   1.953       .  S
O411        C418   1.249       .  A
O411       Co414   1.960       .  S
Co412       O416   2.122       .  S
Co413       O416   2.111       .  S
Co414       O416   2.132       .  S
Co415       O416   2.148   1_556  S
C417        C632   1.498       .  S
C418        C472   1.498       .  S
C419        C675   1.500       .  S
C420        C435   1.502       .  S
C421        C422   1.401       .  A
C421        C426   1.412       .  A
C421       Br428   1.919       .  S
C422        C423   1.420       .  A
C423        C424   1.447       .  A
C423       Br430   1.917       .  S
C424        C425   1.428       .  A
C424       Br429   1.923       .  S
C425        C426   1.416       .  A
C426       Br427   1.915       .  S
C431        C432   1.420       .  A
C431        C436   1.389       .  A
C431       Br438   1.904       .  S
C432        C433   1.419       .  A
C433        C434   1.421       .  A
C433       Br440   1.931       .  S
C434        C435   1.421       .  A
C434       Br439   1.929       .  S
C435        C436   1.415       .  A
C436       Br437   1.960       .  S
C441        C442   1.407       .  A
C441        C446   1.410       .  A
C441       Br448   1.925       .  S
C442        C443   1.405       .  A
C443        C444   1.426       .  A
C443       Br450   1.933       .  S
C444        C445   1.426       .  A
C444       Br449   1.915       .  S
C445        C446   1.420       .  A
C446       Br447   1.913       .  S
C451        C452   1.427       .  A
C451        C456   1.438       .  A
C451       Br458   1.932       .  S
C452        C453   1.415       .  A
C453        C454   1.396       .  A
C453       Br460   1.894       .  S
C454        C455   1.378       .  A
C454       Br459   1.903       .  S
C455        C456   1.427       .  A
C456       Br457   1.893       .  S
C461        C462   1.412       .  A
C461        C466   1.422       .  A
C461       Br468   1.926       .  S
C462        C463   1.443       .  A
C463        C464   1.402       .  A
C463       Br470   1.967       .  S
C464        C465   1.426       .  A
C464       Br469   1.964       .  S
C465        C466   1.422       .  A
C466       Br467   1.926       .  S
C471        C472   1.414       .  A
C471        C476   1.418       .  A
C471       Br478   1.924       .  S
C472        C473   1.419       .  A
C473        C474   1.421       .  A
C473       Br480   1.911       .  S
C474        C475   1.406       .  A
C474       Br479   1.924       .  S
C475        C476   1.415       .  A
C476       Br477   1.916       .  S
C481        C482   1.389       .  A
C481        C486   1.415       .  A
C481       Br488   1.932       .  S
C482        C483   1.421       .  A
C483        C484   1.429       .  A
C483       Br490   1.931       .  S
C484        C485   1.418       .  A
C484       Br489   1.925       .  S
C485        C486   1.422       .  A
C486       Br487   1.923       .  S
C491        C492   1.415       .  A
C491        C496   1.408       .  A
C491       Br498   1.930       .  S
C492        C493   1.435       .  A
C493        C494   1.394       .  A
C493       Br500   1.875       .  S
C494        C495   1.395       .  A
C494       Br499   1.982       .  S
C495        C496   1.412       .  A
C496       Br497   1.932       .  S
C501        C502   1.424       .  A
C501        C506   1.441   1_556  A
C501       Br508   1.915       .  S
C502        C503   1.386       .  A
C503        C504   1.411   1_556  A
C503       Br510   1.928       .  S
C504        C505   1.419       .  A
C504       Br509   1.893       .  S
C505        C506   1.430       .  A
C506       Br507   1.917       .  S
C511        C512   1.410       .  A
C511        C516   1.405       .  A
C511       Br518   1.921       .  S
C512        C513   1.409       .  A
C513        C514   1.424       .  A
C513       Br520   1.929       .  S
C514        C515   1.433       .  A
C514       Br519   1.931       .  S
C515        C516   1.422       .  A
C516       Br517   1.936       .  S
C521        C522   1.426       .  A
C521        C526   1.437       .  A
C521       Br528   1.919       .  S
C522        C523   1.413       .  A
C523        C524   1.391       .  A
C523       Br530   1.909       .  S
C524        C525   1.405       .  A
C524       Br529   1.914       .  S
C525        C526   1.420       .  A
C526       Br527   1.919       .  S
C531        C532   1.430       .  A
C531        C536   1.401       .  A
C531       Br538   1.826       .  S
C532        C533   1.431       .  A
C533        C534   1.439       .  A
C533       Br540   1.914       .  S
C534        C535   1.412       .  A
C534       Br539   1.916       .  S
C535        C536   1.383       .  A
C536       Br537   1.941       .  S
C541        C542   1.420       .  A
C541        C546   1.425       .  A
C541       Br548   1.913       .  S
C542        C543   1.404       .  A
C543        C544   1.394       .  A
C543       Br550   1.951       .  S
C544        C545   1.407       .  A
C544       Br549   1.852       .  S
C545        C546   1.422       .  A
C546       Br547   1.921       .  S
C551        C552   1.424       .  A
C551        C556   1.478   1_455  A
C551       Br558   1.925       .  S
C552        C553   1.392       .  A
C553        C554   1.387   1_455  A
C553       Br560   1.939       .  S
C554        C555   1.422       .  A
C554       Br559   1.850       .  S
C555        C556   1.462       .  A
C556       Br557   1.915       .  S
C561        C562   1.417       .  A
C561        C566   1.424       .  A
C561       Br568   1.914       .  S
C562        C563   1.381       .  A
C563        C564   1.376       .  A
C563       Br570   1.906       .  S
C564        C565   1.411       .  A
C564       Br569   1.888       .  S
C565        C566   1.424       .  A
C566       Br567   1.914       .  S
C571        C572   1.402       .  A
C571        C576   1.398       .  A
C571       Br578   1.909       .  S
C572        C573   1.431       .  A
C573        C574   1.432       .  A
C573       Br580   1.932       .  S
C574        C575   1.414       .  A
C574       Br579   1.924       .  S
C575        C576   1.403       .  A
C576       Br577   1.943       .  S
C581        C582   1.416       .  A
C581        C586   1.382       .  A
C581       Br588   1.959       .  S
C582        C583   1.423       .  A
C583        C584   1.426       .  A
C583       Br590   1.925       .  S
C584        C585   1.420       .  A
C584       Br589   1.928       .  S
C585        C586   1.404       .  A
C586       Br587   1.882       .  S
C591        C592   1.410       .  A
C591        C596   1.404       .  A
C591       Br598   1.923       .  S
C592        C593   1.416       .  A
C593        C594   1.416       .  A
C593       Br600   1.911       .  S
C594        C595   1.407       .  A
C594       Br599   1.914       .  S
C595        C596   1.404       .  A
C596       Br597   1.925       .  S
C601        C602   1.413       .  A
C601        C606   1.399   1_556  A
C601       Br608   1.894       .  S
C602        C603   1.437       .  A
C603        C604   1.440   1_556  A
C603       Br610   1.918       .  S
C604        C605   1.420       .  A
C604       Br609   1.934       .  S
C605        C606   1.408       .  A
C606       Br607   1.921       .  S
C611        C612   1.414       .  A
C611        C616   1.414   1_455  A
C611       Br618   1.939       .  S
C612        C613   1.418       .  A
C613        C614   1.444   1_455  A
C613       Br620   1.918       .  S
C614        C615   1.439       .  A
C614       Br619   1.903       .  S
C615        C616   1.402       .  A
C616       Br617   1.892       .  S
C621        C622   1.425       .  A
C621        C626   1.440       .  A
C621       Br628   1.916       .  S
C622        C623   1.403       .  A
C623        C624   1.399       .  A
C623       Br630   1.861       .  S
C624        C625   1.377       .  A
C624       Br629   1.911       .  S
C625        C626   1.424       .  A
C626       Br627   1.914       .  S
C631        C632   1.393       .  A
C631        C636   1.394       .  A
C631       Br638   1.910       .  S
C632        C633   1.428       .  A
C633        C634   1.438       .  A
C633       Br640   1.919       .  S
C634        C635   1.421       .  A
C634       Br639   1.918       .  S
C635        C636   1.422       .  A
C636       Br637   1.926       .  S
C641        C642   1.426       .  A
C641        C646   1.433       .  A
C641       Br648   1.924       .  S
C642        C643   1.402       .  A
C643        C644   1.398       .  A
C643       Br650   1.914       .  S
C644        C645   1.407       .  A
C644       Br649   1.887       .  S
C645        C646   1.420       .  A
C646       Br647   1.932       .  S
C651        C652   1.403       .  A
C651        C656   1.426       .  A
C651       Br658   1.935       .  S
C652        C653   1.413       .  A
C653        C654   1.422       .  A
C653       Br660   1.923       .  S
C654        C655   1.423       .  A
C654       Br659   1.921       .  S
C655        C656   1.426       .  A
C656       Br657   1.918   1_556  S
C661        C662   1.439       .  A
C661        C666   1.406       .  A
C661       Br668   1.868   1_565  S
C662        C663   1.424       .  A
C663        C664   1.426       .  A
C663       Br670   1.910       .  S
C664        C665   1.406       .  A
C664       Br669   1.917       .  S
C665        C666   1.386       .  A
C666       Br667   1.919       .  S
C671        C672   1.418       .  A
C671        C676   1.413       .  A
C671       Br678   1.925       .  S
C672        C673   1.420       .  A
C673        C674   1.403       .  A
C673       Br680   1.939       .  S
C674        C675   1.431       .  A
C674       Br679   1.961       .  S
C675        C676   1.416       .  A
C676       Br677   1.937       .  S
C681        C682   1.370       .  A
C681        C686   1.374       .  A
C681       Br688   1.904       .  S
C682        C683   1.426       .  A
C683        C684   1.444       .  A
C683       Br690   1.913       .  S
C684        C685   1.430       .  A
C684       Br689   1.922       .  S
C685        C686   1.403       .  A
C686       Br687   1.864       .  S
C691        C692   1.419       .  A
C691        C696   1.423       .  A
C691       Br698   1.928       .  S
C692        C693   1.412       .  A
C693        C694   1.397       .  A
C693       Br700   1.905       .  S
C694        C695   1.418       .  A
C694       Br699   1.949       .  S
C695        C696   1.417       .  A
C696       Br697   1.926       .  S
C701        C702   1.447       .  A
C701        C706   1.446   1_554  A
C701       Br708   1.918       .  S
C702        C703   1.425       .  A
C703        C704   1.407   1_554  A
C703       Br710   1.893       .  S
C704        C705   1.399       .  A
C704       Br709   1.888       .  S
C705        C706   1.421       .  A
C706       Br707   1.921       .  S
C711        C712   1.414       .  A
C711        C716   1.428       .  A
C711       Br718   1.928       .  S
C712        C713   1.389       .  A
C713        C714   1.408       .  A
C713       Br720   1.888       .  S
C714        C715   1.422       .  A
C714       Br719   1.929       .  S
C715        C716   1.430       .  A
C716       Br717   1.927       .  S
C721        C722   1.413       .  A
C721        C726   1.416       .  A
C721       Br728   1.931       .  S
C722        C723   1.433       .  A
C723        C724   1.407       .  A
C723       Br730   1.922       .  S
C724        C725   1.419       .  A
C724       Br729   1.969       .  S
C725        C726   1.417       .  A
C726       Br727   1.913       .  S
C731        C732   1.414       .  A
C731        C736   1.423       .  A
C731       Br738   1.925       .  S
C732        C733   1.431       .  A
C733        C734   1.394       .  A
C733       Br740   1.956       .  S
C734        C735   1.407       .  A
C734       Br739   1.920       .  S
C735        C736   1.418       .  A
C736       Br737   1.925       .  S
C741        C742   1.430       .  A
C741        C746   1.447       .  A
C741       Br748   1.920       .  S
C742        C743   1.411       .  A
C743        C744   1.394       .  A
C743       Br750   1.915       .  S
C744        C745   1.417       .  A
C744       Br749   1.924       .  S
C745        C746   1.430       .  A
C746       Br747   1.921       .  S
C751        C752   1.433       .  A
C751        C756   1.474   1_565  A
C751       Br758   1.920       .  S
C752        C753   1.413       .  A
C753        C754   1.382       .  A
C753       Br760   1.937       .  S
C754        C755   1.418   1_565  A
C754       Br759   1.859       .  S
C755        C756   1.454       .  A
C756       Br757   1.915       .  S
C761        C762   1.421       .  A
C761        C766   1.391       .  A
C761       Br768   1.897       .  S
C762        C763   1.422       .  A
C763        C764   1.427       .  A
C763       Br770   1.928       .  S
C764        C765   1.425       .  A
C764       Br769   1.929       .  S
C765        C766   1.411       .  A
C766       Br767   1.951       .  S
C771        C772   1.419       .  A
C771        C776   1.432       .  A
C771       Br778   1.902       .  S
C772        C773   1.411       .  A
C773        C774   1.419       .  A
C773       Br780   1.919       .  S
C774        C775   1.414       .  A
C774       Br779   1.924       .  S
C775        C776   1.420       .  A
C776       Br777   1.923       .  S
C781        C782   1.415       .  A
C781        C786   1.379       .  A
C781       Br788   1.863       .  S
C782        C783   1.430       .  A
C783        C784   1.429       .  A
C783       Br790   1.911       .  S
C784        C785   1.412       .  A
C784       Br789   1.919       .  S
C785        C786   1.373       .  A
C786       Br787   1.888       .  S
C791        C792   1.397       .  A
C791        C796   1.394       .  A
C791       Br798   1.935       .  S
C792        C793   1.424       .  A
C793        C794   1.434       .  A
C793       Br800   1.908       .  S
C794        C795   1.420       .  A
C794       Br799   1.935       .  S
C795        C796   1.403       .  A
C796       Br797   1.882       .  S
C801        C802   1.436       .  A
C801        C806   1.451   1_565  A
C801       Br808   1.915       .  S
C802        C803   1.405       .  A
C803        C804   1.393   1_565  A
C803       Br810   1.866       .  S
C804        C805   1.390       .  A
C804       Br809   1.898       .  S
C805        C806   1.427       .  A
C806       Br807   1.921       .  S
C811        C812   1.439       .  A
C811        C816   1.452   1_554  A
C811       Br818   1.921       .  S
C812        C813   1.399       .  A
C813        C814   1.392   1_554  A
C813       Br820   1.883       .  S
C814        C815   1.394       .  A
C814       Br819   1.894       .  S
C815        C816   1.425       .  A
C816       Br817   1.925       .  S
C821        C822   1.408       .  A
C821        C826   1.411       .  A
C821       Br828   1.931       .  S
C822        C823   1.417       .  A
C823        C824   1.423       .  A
C823       Br830   1.937       .  S
C824        C825   1.427       .  A
C824       Br829   1.933       .  S
C825        C826   1.432       .  A
C826       Br827   1.950       .  S
C831        C832   1.407       .  A
C831        C836   1.395       .  A
C831       Br838   1.904       .  S
C832        C833   1.408       .  A
C833        C834   1.419       .  A
C833       Br840   1.918       .  S
C834        C835   1.422       .  A
C834       Br839   1.921       .  S
C835        C836   1.391       .  A
C836       Br837   1.908       .  S
C841        C842   1.414       .  A
C841        C846   1.381       .  A
C841       Br848   1.915       .  S
C842        C843   1.426       .  A
C843        C844   1.429       .  A
C843       Br850   1.926       .  S
C844        C845   1.421       .  A
C844       Br849   1.922       .  S
C845        C846   1.387       .  A
C846       Br847   1.899       .  S
C851        C852   1.413       .  A
C851        C856   1.424       .  A
C851       Br858   1.916       .  S
C852        C853   1.405       .  A
C853        C854   1.413       .  A
C853       Br860   1.916       .  S
C854        C855   1.401       .  A
C854       Br859   1.885       .  S
C855        C856   1.413       .  A
C856       Br857   1.925       .  S
C861        C862   1.419       .  A
C861        C866   1.435       .  A
C861       Br868   1.918       .  S
C862        C863   1.378       .  A
C863        C864   1.380       .  A
C863       Br870   1.929       .  S
C864        C865   1.394       .  A
C864       Br869   1.794       .  S
C865        C866   1.423       .  A
C866       Br867   1.915       .  S
C871        C872   1.436       .  A
C871        C876   1.445       .  A
C871       Br878   1.922       .  S
C872        C873   1.402       .  A
C873        C874   1.405       .  A
C873       Br880   1.909       .  S
C874        C875   1.413       .  A
C874       Br879   1.919       .  S
C875        C876   1.424       .  A
C876       Br877   1.924       .  S
C881        C882   1.427       .  A
C881        C886   1.436       .  A
C881       Br888   1.904       .  S
C882        C883   1.418       .  A
C883        C884   1.419       .  A
C883       Br890   1.911       .  S
C884        C885   1.410       .  A
C884       Br889   1.918       .  S
C885        C886   1.402       .  A
C886       Br887   1.929       .  S
C891        C892   1.416       .  A
C891        C896   1.395       .  A
C891       Br898   1.912       .  S
C892        C893   1.410       .  A
C893        C894   1.409       .  A
C893       Br900   1.926       .  S
C894        C895   1.423       .  A
C894       Br899   1.935       .  S
C895        C896   1.419       .  A
C896       Br897   1.960       .  S
C901        C902   1.445       .  A
C901        C906   1.442   1_545  A
C901       Br908   1.902       .  S
C902        C903   1.436       .  A
C903        C904   1.405   1_545  A
C903       Br910   1.921       .  S
C904        C905   1.401       .  A
C904       Br909   1.901       .  S
C905        C906   1.407       .  A
C906       Br907   1.928       .  S
C911        C912   1.425       .  A
C911        C916   1.401       .  A
C911       Br918   1.955       .  S
C912        C913   1.421       .  A
C913        C914   1.417       .  A
C913       Br920   1.929       .  S
C914        C915   1.411       .  A
C914       Br919   1.927       .  S
C915        C916   1.411       .  A
C916       Br917   1.915       .  S
C921        C922   1.428       .  A
C921        C926   1.397       .  A
C921       Br928   1.937       .  S
C922        C923   1.422       .  A
C923        C924   1.416       .  A
C923       Br930   1.929       .  S
C924        C925   1.413       .  A
C924       Br929   1.933       .  S
C925        C926   1.390       .  A
C926       Br927   1.926       .  S
C931        C932   1.418       .  A
C931        C936   1.408       .  A
C931       Br938   1.907       .  S
C932        C933   1.419       .  A
C933        C934   1.421       .  A
C933       Br940   1.888       .  S
C934        C935   1.407       .  A
C934       Br939   1.918       .  S
C935        C936   1.396       .  A
C936       Br937   1.927       .  S
C941        C942   1.415       .  A
C941        C946   1.369       .  A
C941       Br948   1.893       .  S
C942        C943   1.428       .  A
C943        C944   1.429       .  A
C943       Br950   1.923       .  S
C944        C945   1.409       .  A
C944       Br949   1.919       .  S
C945        C946   1.386       .  A
C946       Br947   1.905       .  S
C951        C952   1.454       .  A
C951        C956   1.465   1_455  A
C951       Br958   1.917       .  S
C952        C953   1.405       .  A
C953        C954   1.392   1_455  A
C953       Br960   1.891       .  S
C954        C955   1.395       .  A
C954       Br959   1.857       .  S
C955        C956   1.438       .  A
C956       Br957   1.935       .  S
C961        C962   1.366       .  A
C961        C966   1.388       .  A
C961       Br968   1.900   1_455  S
C962        C963   1.415       .  A
C963        C964   1.435       .  A
C963       Br970   1.909       .  S
C964        C965   1.426       .  A
C964       Br969   1.916       .  S
C965        C966   1.402       .  A
C966       Br967   1.824       .  S
C971        C972   1.431       .  A
C971        C976   1.441       .  A
C971       Br978   1.913       .  S
C972        C973   1.407       .  A
C973        C974   1.411       .  A
C973       Br980   1.901       .  S
C974        C975   1.377       .  A
C974       Br979   1.908       .  S
C975        C976   1.419       .  A
C976       Br977   1.912       .  S
C981        C982   1.405       .  A
C981        C986   1.438       .  A
C981       Br988   1.938       .  S
C982        C983   1.408       .  A
C983        C984   1.426       .  A
C983       Br990   1.918       .  S
C984        C985   1.425       .  A
C984       Br989   1.914       .  S
C985        C986   1.427       .  A
C986       Br987   1.900       .  S
C991        C992   1.413       .  A
C991        C996   1.387       .  A
C991       Br998   1.950       .  S
C992        C993   1.415       .  A
C993        C994   1.410       .  A
C993      Br1000   1.927       .  S
C994        C995   1.407       .  A
C994       Br999   1.916       .  S
C995        C996   1.422       .  A
C996       Br997   1.942       .  S
C1001      C1002   1.444       .  A
C1001      C1006   1.459   1_565  A
C1001     Br1008   1.918       .  S
C1002      C1003   1.440       .  A
C1003      C1004   1.405   1_565  A
C1003     Br1010   1.888       .  S
C1004      C1005   1.400       .  A
C1004     Br1009   1.924       .  S
C1005      C1006   1.424       .  A
C1006     Br1007   1.921       .  S
C1011      C1012   1.436       .  A
C1011      C1016   1.452   1_455  A
C1011     Br1018   1.937       .  S
C1012      C1013   1.411       .  A
C1013      C1014   1.400   1_455  A
C1013     Br1020   1.899       .  S
C1014      C1015   1.419       .  A
C1014     Br1019   1.930       .  S
C1015      C1016   1.439       .  A
C1016     Br1017   1.917       .  S
