geometry optimzed in LAMMPS
_audit_creation_date              2020-12-01 
_audit_creation_method            'lammps2cif' 
_symmetry_space_group_name_H-M    'P1' 
_symmetry_Int_Tables_number       1 
_symmetry_cell_setting            triclinic 
loop_ 
_symmetry_equiv_pos_as_xyz 
  x,y,z 
_cell_length_a                    44.92976494 
_cell_length_b                    45.00156862878391 
_cell_length_c                    78.84120123055445 
_cell_angle_alpha                 90.36033150690677 
_cell_angle_beta                  90.13973491580789 
_cell_angle_gamma                 119.96086019363948 
loop_ 
_atom_site_label 
_atom_site_type_symbol 
_atom_site_fract_x 
_atom_site_fract_y 
_atom_site_fract_z 
_atom_site_charge 
N1          N  0.50765812  0.46037560  0.89954115    -0.25200
N2          N  0.51943500  0.47826926  0.88545411    -0.33100
C3          C  0.49811348  0.46064870  0.87252926     0.03100
C4          C  0.47185913  0.43041519  0.87889950     0.09100
C5          C  0.47855637  0.43094592  0.89599088    -0.04000
H6          H  0.50134054  0.46937740  0.85956214     0.09800
H7          H  0.46324634  0.41164308  0.90522122     0.11000
Cu8        Cu  0.99186814  0.50893658  0.88634814     0.44200
Cu9        Cu  0.53037635  0.47714447  0.92314268     0.42000
Cu10       Cu  0.09939775  0.07182340  0.92546495     0.43900
N11         N  0.10814500  0.07428745  0.88740885    -0.32600
N12         N  0.12097932  0.09074693  0.90193443    -0.26900
C13         C  0.14975856  0.12061393  0.89878064    -0.03000
C14         C  0.15510842  0.12290221  0.88150509     0.09300
C15         C  0.12839977  0.09325470  0.87463600     0.03100
H16         H  0.16564387  0.13917005  0.90838054     0.10700
H17         H  0.12401006  0.08592163  0.86137588     0.09800
N18         N  0.07441995  0.04608395  0.94733228    -0.34100
N19         N  0.55428559  0.50127552  0.94562934    -0.26200
C20         C  0.54493993  0.48927925  0.96145006    -0.01500
C21         C  0.51619776  0.00245312  0.97440733     0.07100
C22         C  0.08244714  0.05687011  0.96353543     0.05200
H23         H  0.52339462  0.46437621  0.96443186     0.10300
H24         H  0.10352868  0.08158671  0.96741284     0.09200
N25         N  0.13065624  0.07440457  0.75832199    -0.25200
N26         N  0.11391224  0.06338311  0.77279266    -0.33100
C27         C  0.13153700  0.08633332  0.78513619     0.03100
C28         C  0.16058117  0.11291022  0.77805192     0.09100
C29         C  0.15939252  0.10471552  0.76108401    -0.04000
H30         H  0.12365474  0.08386754  0.79825544     0.09800
H31         H  0.17784131  0.11966949  0.75144481     0.11000
Cu32       Cu  0.01235382  0.49079220  0.77658018     0.44200
Cu33       Cu  0.05839581  0.52534340  0.73710925     0.42000
Cu34       Cu  0.97168253  0.45285071  0.73659414     0.43900
N35         N  0.51072057  0.48363625  0.77309130    -0.32600
N36         N  0.49428998  0.47107181  0.75853554    -0.26900
C37         C  0.46502385  0.44157479  0.76149500    -0.03000
C38         C  0.46306173  0.43544647  0.77867021     0.09300
C39         C  0.49228603  0.46245056  0.78570326     0.03100
H40         H  0.44665229  0.42572770  0.75182112     0.10700
H41         H  0.49970194  0.46640367  0.79895264     0.09800
N42         N  0.00038573  0.47406151  0.71494117    -0.34100
N43         N  0.03246127  0.49973617  0.71511060    -0.26200
C44         C  0.04391189  0.50665042  0.69905981    -0.01500
C45         C  0.01763194  0.48436810  0.68830661     0.07100
C46         C  0.99042457  0.46425356  0.69879641     0.05200
H47         H  0.12386469  0.04560995  0.69387406     0.10300
H48         H  0.50218235  0.48993419  0.69334470     0.09200
N49         N  0.09551656  0.97218126  0.42502412    -0.25200
N50         N  0.08164249  0.97309617  0.43966965    -0.33100
C51         C  0.10150738  0.97283911  0.45240869     0.03100
C52         C  0.12903798  0.97173136  0.44538524     0.09100
C53         C  0.12457133  0.97134654  0.42805691    -0.04000
H54         H  0.09624031  0.97338922  0.46575831     0.09800
H55         H  0.14116388  0.97053839  0.41835216     0.11000
Cu56       Cu  0.03641315  0.97472476  0.44175106     0.44200
Cu57       Cu  0.07483683  0.97262008  0.40152563     0.42000
Cu58       Cu  0.99990875  0.98257291  0.40224288     0.43900
N59         N  0.99124883  0.97661882  0.44019496    -0.32600
N60         N  0.97804311  0.97963200  0.42572709    -0.26900
C61         C  0.44379922  0.96758240  0.42775684    -0.03000
C62         C  0.43918533  0.96703082  0.44505435     0.09300
C63         C  0.97070240  0.97486644  0.45301009     0.03100
H64         H  0.42676669  0.96734291  0.41796757     0.10700
H65         H  0.97526940  0.97224470  0.46625397     0.10400
N66         N  0.02437636  0.98174692  0.38015587    -0.34100
N67         N  0.05103520  0.97684910  0.37982478    -0.26200
C68         C  0.05972020  0.97596063  0.36358376    -0.01500
C69         C  0.03777459  0.98101626  0.35324210     0.07100
C70         C  0.01565336  0.98455582  0.36416783     0.05200
H71         H  0.08058364  0.97215057  0.35961091     0.10300
H72         H  0.99424357  0.98807017  0.36078546     0.09200
N73         N  0.51141111  0.53729421  0.56837395    -0.25200
N74         N  0.52494001  0.53607245  0.55368596    -0.33100
C75         C  0.50359367  0.53380318  0.54107380     0.03100
C76         C  0.47548156  0.53362858  0.54826366     0.09100
C77         C  0.48118682  0.53586583  0.56553935    -0.04000
H78         H  0.50822865  0.53241079  0.52770898     0.09800
H79         H  0.46466595  0.53646149  0.57534600     0.11000
Cu80       Cu  0.05482166  0.50763026  0.55367691     0.44200
Cu81       Cu  0.53469670  0.54103467  0.59159849     0.42000
Cu82       Cu  0.09229481  0.50454570  0.59378526     0.43900
N83         N  0.10099873  0.50794961  0.55582671    -0.32600
N84         N  0.11481569  0.50696326  0.57050067    -0.26900
C85         C  0.14447705  0.50728310  0.56756399    -0.03000
C86         C  0.14936756  0.50851658  0.55024902     0.09300
C87         C  0.12148024  0.50893541  0.54316213     0.03100
H88         H  0.16111362  0.50658373  0.57730254     0.10700
H89         H  0.11637632  0.50984520  0.52979992     0.09800
N90         N  0.06358551  0.49948726  0.61526897    -0.34100
N91         N  0.03261036  0.49610256  0.61487557    -0.26200
C92         C  0.02103242  0.49316942  0.63084884    -0.01500
C93         C  0.04608688  0.49507041  0.64180875     0.07100
C94         C  0.07269474  0.49919869  0.63150414     0.05200
H95         H  0.52792962  0.54236021  0.63312508     0.10300
H96         H  0.09703732  0.50205302  0.63551776     0.09200
N97         N  0.97872396  0.41244808  0.09317069    -0.25200
N98         N  0.98359021  0.42944091  0.10762824    -0.33100
C99         C  0.98674578  0.41125997  0.12029690     0.03100
C100        C  0.98369917  0.38157058  0.11342731     0.09100
C101        C  0.97869113  0.38306483  0.09626089    -0.04000
H102        H  0.99149891  0.41937337  0.13345641     0.09800
H103        H  0.97590637  0.36452289  0.08664924     0.11000
Cu104      Cu  0.00597537  0.98760816  0.10694737     0.44200
Cu105      Cu  0.97434422  0.43052483  0.06966852     0.42000
Cu106      Cu  0.03120200  0.03997657  0.06869302     0.43900
N107        N  0.01149779  0.03612458  0.10558748    -0.32600
N108        N  0.02090345  0.05523744  0.09178766    -0.26900
C109        C  0.02210967  0.08512219  0.09529142    -0.03000
C110        C  0.01306986  0.08461862  0.11203364     0.09300
C111        C  0.00651901  0.05335797  0.11822735     0.03100
H112        H  0.02904421  0.10560712  0.08631462     0.10700
H113        H  0.99879811  0.04382026  0.13096415     0.09800
N114        N  0.51478028  0.99066726  0.04783909    -0.34100
N115        N  0.53940653  0.46795416  0.04561102    -0.26200
C116        C  0.53915667  0.45794123  0.02947047    -0.01500
C117        C  0.54687948  0.48533958  0.01899488     0.07100
C118        C  0.51512970  0.00136303  0.03192401     0.05200
H119        H  0.53398146  0.43267767  0.02566142     0.10300
H120        H  0.51735348  0.02575136  0.02874328     0.09200
N121        N  0.01778149  0.05456574  0.23512363    -0.25200
N122        N  0.01950052  0.04102837  0.22046167    -0.33100
C123        C  0.02145477  0.06188195  0.20782426     0.03100
C124        C  0.02099578  0.08974328  0.21492759     0.09100
C125        C  0.01862035  0.08439869  0.23219885    -0.04000
H126        H  0.02305665  0.05705638  0.19448553     0.09800
H127        H  0.01763559  0.10095058  0.24194433     0.11000
Cu128      Cu  0.01927197  0.99496185  0.21822886     0.44200
Cu129      Cu  0.01541708  0.03261725  0.25852931     0.42000
Cu130      Cu  0.02841715  0.46010141  0.25699370     0.43900
N131        N  0.02407366  0.45232172  0.21888471    -0.32600
N132        N  0.02684166  0.43911954  0.23335463    -0.26900
C133        C  0.02681831  0.40974868  0.23010211    -0.03000
C134        C  0.02393523  0.40436444  0.21280950     0.09300
C135        C  0.02223767  0.43166241  0.20601938     0.03100
H136        H  0.02805249  0.39323830  0.23965250     0.10700
H137        H  0.01917004  0.43586963  0.19279088     0.09800
N138        N  0.02239839  0.98127297  0.27996105    -0.34100
N139        N  0.01840922  0.00844985  0.28027868    -0.26200
C140        C  0.01802197  0.01760309  0.29652111    -0.01500
C141        C  0.02246328  0.99541354  0.30687250     0.07100
C142        C  0.02509431  0.97264384  0.29595186     0.05200
H143        H  0.01515510  0.03908432  0.30049310     0.10300
H144        H  0.03487260  0.45651346  0.29859021     0.09200
C145        C  0.01149702  0.26742561  0.17224912     0.04400
C146        C  0.00518872  0.26358666  0.15463668     0.04300
C147        C  0.00430452  0.23581912  0.14603983    -0.16200
C148        C  0.00934216  0.21171336  0.15485356     0.04400
C149        C  0.01506574  0.21523652  0.17251995     0.04300
C150        C  0.01624301  0.24317184  0.18109495    -0.16200
H151        H  0.02083280  0.24603201  0.19467415     0.06400
H152        H  0.99973307  0.23298483  0.13244963     0.06400
C153        C  0.28334727  0.24852174  0.82029604     0.04400
C154        C  0.28354788  0.24952219  0.83816815     0.04300
C155        C  0.31067018  0.27708590  0.84680174    -0.16200
C156        C  0.33745782  0.30367293  0.83778561     0.04400
C157        C  0.33701715  0.30286825  0.81992871     0.04300
C158        C  0.31001346  0.27525801  0.81129106    -0.16200
H159        H  0.30978883  0.27453580  0.79753360     0.06400
H160        H  0.31099636  0.27778957  0.86055770     0.06400
C161        C  0.25624472  0.96672202  0.48757085     0.04400
C162        C  0.28200559  0.51692224  0.50725586     0.04300
C163        C  0.31068213  0.52039134  0.51616340    -0.16200
C164        C  0.33892978  0.52271700  0.50744168     0.04400
C165        C  0.30991735  0.96582984  0.48758721     0.04300
C166        C  0.28309247  0.96637639  0.47876281    -0.16200
H167        H  0.28318100  0.96666127  0.46500101     0.06400
H168        H  0.31093672  0.52110171  0.52991631     0.06400
C169        C  0.01907535  0.19012074  0.18206787    -0.16400
C170        C  0.02117432  0.16819767  0.18981169     0.07600
C171        C  0.02222304  0.14154414  0.19867129     0.09500
C172        C  0.02208876  0.11815247  0.20612276    -0.17300
C173        C  0.02117223  0.37518417  0.20389496    -0.16400
C174        C  0.01862489  0.35027009  0.19675748     0.07600
C175        C  0.01572765  0.32100300  0.18855751     0.09500
C176        C  0.01356620  0.29629412  0.18137286    -0.17300
C177        C  0.01124869  0.11133224  0.12119564    -0.16400
C178        C  0.01004437  0.13392858  0.12888167     0.07600
C179        C  0.00912430  0.16066835  0.13785525     0.09500
C180        C  0.00886821  0.18376447  0.14554232    -0.17300
C181        C  0.98711345  0.35544506  0.12215681    -0.16400
C182        C  0.99058834  0.33377524  0.12935029     0.07600
C183        C  0.99528250  0.30879642  0.13779721     0.09500
C184        C  0.99968351  0.28793524  0.14523271    -0.17300
C185        C  0.44623798  0.53163276  0.53963095    -0.16400
C186        C  0.42151263  0.52993554  0.53260559     0.07600
C187        C  0.39250298  0.52778177  0.52433099     0.09500
C188        C  0.36792086  0.52566890  0.51694909    -0.17300
C189        C  0.25327394  0.51433892  0.51669838    -0.16400
C190        C  0.22937622  0.51238590  0.52457554     0.07600
C191        C  0.20148908  0.51053475  0.53371784     0.09500
C192        C  0.17773136  0.50940404  0.54137372    -0.17300
C193        C  0.03759189  0.98102400  0.33452942    -0.14400
C194        C  0.02305261  0.99580633  0.32558383    -0.29500
H195        H  0.05065790  0.96951850  0.32801164     0.14700
H196        H  0.01223431  0.00953489  0.33210274     0.15200
C197        C  0.41088988  0.96628109  0.45381174    -0.16400
C198        C  0.38740166  0.96589025  0.46131820     0.07600
C199        C  0.36021973  0.96569314  0.47028253     0.09500
C200        C  0.33722162  0.96569083  0.47808713    -0.17300
C201        C  0.15655861  0.97084450  0.45427269    -0.16400
C202        C  0.17957347  0.96991457  0.46169899     0.07600
C203        C  0.20640543  0.96870564  0.47045552     0.09500
C204        C  0.22917324  0.96771298  0.47810032    -0.17300
C205        C  0.01728443  0.48299586  0.66959566    -0.14400
C206        C  0.04627634  0.49547005  0.66053104    -0.29500
H207        H  0.99251829  0.47060128  0.66319024     0.14700
H208        H  0.07089478  0.50563654  0.66698379     0.15200
C209        C  0.43620761  0.40661189  0.78736157    -0.16400
C210        C  0.41346055  0.38228633  0.79448372     0.07600
C211        C  0.38671611  0.35396462  0.80285720     0.09500
C212        C  0.36395301  0.33027215  0.81033029    -0.17300
C213        C  0.25634121  0.22014654  0.81096489    -0.16400
C214        C  0.23414993  0.19613985  0.80318143     0.07600
C215        C  0.20848617  0.16763348  0.79416850     0.09500
C216        C  0.18666804  0.14288527  0.78665713    -0.17300
C217        C  0.51946710  0.00330749  0.99303459    -0.14400
C218        C  0.54860055  0.48533165  0.00031095    -0.29500
H219        H  0.53275418  0.02823081  0.99926119     0.14700
H220        H  0.03175963  0.97824467  0.99539591     0.15200
C221        C  0.36545267  0.33133405  0.84700678    -0.16400
C222        C  0.38959571  0.35450014  0.85425533     0.07600
C223        C  0.41833104  0.38142499  0.86254882     0.09500
C224        C  0.44290882  0.40405694  0.86979862    -0.17300
C225        C  0.18293039  0.15035734  0.87250826    -0.16400
C226        C  0.20619853  0.17326110  0.86486072     0.07600
C227        C  0.23330773  0.19992456  0.85576306     0.09500
C228        C  0.25628378  0.22255255  0.84784241    -0.17300
N229        N  0.44753404  0.93973898  0.90340693    -0.25200
N230        N  0.45769238  0.95618202  0.88883578    -0.33100
C231        C  0.43596677  0.93652593  0.87645449     0.03100
C232        C  0.41111556  0.90645842  0.88364201     0.09100
C233        C  0.41906755  0.90920371  0.90069098    -0.04000
H234        H  0.43805440  0.94371226  0.86325371     0.09800
H235        H  0.40512153  0.89057941  0.91043098     0.11000
Cu236      Cu  0.06381059  0.02681674  0.88547233     0.44200
Cu237      Cu  0.47201689  0.95969409  0.92644078     0.42000
Cu238      Cu  0.03135384  0.54753758  0.92684063     0.43900
N239        N  0.03817192  0.55460901  0.88879777    -0.32600
N240        N  0.05252370  0.56865964  0.90356851    -0.26900
C241        C  0.08281504  0.59723168  0.90080578    -0.03000
C242        C  0.08759187  0.60124710  0.88351912     0.09300
C243        C  0.05896049  0.57390845  0.87624355     0.03100
H244        H  0.10027138  0.61352845  0.91067325     0.10700
H245        H  0.05381773  0.56813163  0.86284594     0.09800
N246        N  0.00752611  0.51906920  0.94824311    -0.34100
N247        N  0.49883856  0.98658586  0.94793467    -0.26200
C248        C  0.49325573  0.97571432  0.96407798    -0.01500
C249        C  0.56637297  0.51474965  0.97276429     0.07100
C250        C  0.01610897  0.52835572  0.96456124     0.05200
H251        H  0.47350298  0.95050318  0.96797898     0.10300
H252        H  0.03684815  0.55299185  0.96876037     0.09200
N253        N  0.07683178  0.54760913  0.76079823    -0.25200
N254        N  0.06006509  0.53496172  0.77513121    -0.33100
C255        C  0.07820449  0.55601936  0.78803742     0.03100
C256        C  0.10763916  0.58307061  0.78147900     0.09100
C257        C  0.10608064  0.57709514  0.76422080    -0.04000
H258        H  0.07014824  0.55224745  0.80115439     0.09800
H259        H  0.12440208  0.59326835  0.75480638     0.11000
Cu260      Cu  0.06750000  0.01822964  0.77528924     0.44200
Cu261      Cu  0.11328523  0.04855614  0.73534637     0.42000
Cu262      Cu  0.02720613  0.97555388  0.73610684     0.43900
N263        N  0.46802648  0.93854804  0.77631748    -0.32600
N264        N  0.45224215  0.92346806  0.76195961    -0.26900
C265        C  0.42211480  0.89534179  0.76551738    -0.03000
C266        C  0.41886811  0.89269390  0.78290305     0.09300
C267        C  0.44828044  0.92038083  0.78942115     0.03100
H268        H  0.40383145  0.87829246  0.75611622     0.10700
H269        H  0.45471614  0.92706506  0.80265925     0.09800
N270        N  0.05548154  0.99464992  0.71417029    -0.34100
N271        N  0.08749167  0.02040098  0.71391132    -0.26200
C272        C  0.09870640  0.02572048  0.69780141    -0.01500
C273        C  0.07231196  0.00254089  0.68744197     0.07100
C274        C  0.04530179  0.98316796  0.69824581     0.05200
H275        H  0.06915607  0.52699638  0.69549854     0.10300
H276        H  0.46227383  0.93030309  0.69665298     0.09200
N277        N  0.11160440  0.49546757  0.42386419    -0.25200
N278        N  0.09889661  0.49919742  0.43833896    -0.33100
C279        C  0.11984171  0.50156043  0.45113802     0.03100
C280        C  0.14690365  0.49923340  0.44439998     0.09100
C281        C  0.14103969  0.49541527  0.42710444    -0.04000
H282        H  0.11592235  0.50532541  0.46435986     0.09800
H283        H  0.15716516  0.49333805  0.41756978     0.11000
Cu284      Cu  0.05463844  0.50272902  0.44026998     0.44200
Cu285      Cu  0.08912256  0.49208106  0.40030714     0.42000
Cu286      Cu  0.01427478  0.50311630  0.40106841     0.43900
N287        N  0.01120285  0.50783366  0.43898933    -0.32600
N288        N  0.99650016  0.50808649  0.42448432    -0.26900
C289        C  0.47492898  0.52881269  0.43005873    -0.03000
C290        C  0.47025681  0.52683097  0.44737083     0.09300
C291        C  0.99349956  0.51129993  0.45186719     0.03100
H292        H  0.45843500  0.53046125  0.42052452     0.10700
H293        H  0.99973220  0.51177061  0.46516736     0.10400
N294        N  0.03555962  0.49664950  0.37910766    -0.34100
N295        N  0.06226033  0.49180346  0.37873647    -0.26200
C296        C  0.06881979  0.48772620  0.36249881    -0.01500
C297        C  0.04539469  0.49055415  0.35221354     0.07100
C298        C  0.02465153  0.49614292  0.36317285     0.05200
H299        H  0.08940040  0.48349116  0.35846728     0.10300
H300        H  0.00294216  0.49920128  0.35989992     0.09200
N301        N  0.47226125  0.96657579  0.56942066    -0.25200
N302        N  0.48764890  0.96756206  0.55497539    -0.33100
C303        C  0.46776568  0.96674534  0.54197687     0.03100
C304        C  0.43863880  0.96519174  0.54862760     0.09100
C305        C  0.44220648  0.96513768  0.56600950    -0.04000
H306        H  0.47429650  0.96771223  0.52871423     0.09800
H307        H  0.42458327  0.96461534  0.57548547     0.11000
Cu308      Cu  0.03904388  0.97700178  0.55222477     0.44200
Cu309      Cu  0.49346324  0.96884042  0.59311963     0.42000
Cu310      Cu  0.08363233  0.98431508  0.59195911     0.43900
N311        N  0.08514245  0.97723532  0.55390169    -0.32600
N312        N  0.10135546  0.97991208  0.56836158    -0.26900
C313        C  0.12996807  0.97846676  0.56510545    -0.03000
C314        C  0.13167661  0.97473310  0.54783167     0.09300
C315        C  0.10302368  0.97404782  0.54105351     0.03100
H316        H  0.14800238  0.97979697  0.57463522     0.10700
H317        H  0.09556105  0.97121945  0.52783116     0.09800
N318        N  0.05880040  0.98482656  0.61397955    -0.34100
N319        N  0.02783170  0.98142931  0.61404825    -0.26200
C320        C  0.01814260  0.98126800  0.63017408    -0.01500
C321        C  0.04441293  0.98517730  0.64075596     0.07100
C322        C  0.06985184  0.98733977  0.63008470     0.05200
H323        H  0.48588085  0.96985681  0.63472957     0.10300
H324        H  0.09428922  0.98991994  0.63370560     0.09200
N325        N  0.00763170  0.92775339  0.09084841    -0.25200
N326        N  0.00350523  0.94041918  0.10525677    -0.33100
C327        C  0.99874263  0.91848151  0.11786864     0.03100
C328        C  0.99992626  0.89080247  0.11099579     0.09100
C329        C  0.00562870  0.89741040  0.09388145    -0.04000
H330        H  0.99517734  0.92264234  0.13107042     0.09800
H331        H  0.00859499  0.88164104  0.08437545     0.11000
Cu332      Cu  0.98702999  0.47714324  0.10946236     0.44200
Cu333      Cu  0.01718318  0.95328723  0.06796412     0.42000
Cu334      Cu  0.98553966  0.51552177  0.06953165     0.43900
N335        N  0.98945504  0.52431392  0.10749039    -0.32600
N336        N  0.98887714  0.53817592  0.09283445    -0.26900
C337        C  0.99010526  0.56822969  0.09574654    -0.03000
C338        C  0.99154837  0.57342141  0.11303476     0.09300
C339        C  0.99109889  0.54526952  0.12016276     0.03100
H340        H  0.98961327  0.58478300  0.08601049     0.10700
H341        H  0.99156176  0.54017475  0.13354263     0.09800
N342        N  0.54649692  0.50022408  0.04575269    -0.34100
N343        N  0.51067501  0.95947649  0.04729930    -0.26200
C344        C  0.50791419  0.94930280  0.03101176    -0.01500
C345        C  0.51079940  0.97549897  0.02083915     0.07100
C346        C  0.55134009  0.51173704  0.02973587     0.05200
H347        H  0.50405966  0.92466423  0.02688967     0.10300
H348        H  0.55689841  0.53719954  0.02620438     0.09200
N349        N  0.01324205  0.55290061  0.23397691    -0.25200
N350        N  0.01591806  0.54000208  0.21931158    -0.33100
C351        C  0.01467103  0.55926708  0.20664164     0.03100
C352        C  0.01110053  0.58542087  0.21374374     0.09100
C353        C  0.01028378  0.58073753  0.23104620    -0.04000
H354        H  0.01618300  0.55450921  0.19328419     0.09800
H355        H  0.00773072  0.59635316  0.24080264     0.11000
Cu356      Cu  0.02090069  0.49667994  0.21729674     0.44200
Cu357      Cu  0.01416517  0.53233643  0.25729385     0.42000
Cu358      Cu  0.02271108  0.95643713  0.25785274     0.43900
N359        N  0.01839567  0.94854540  0.21979257    -0.32600
N360        N  0.01973229  0.93459825  0.23429115    -0.26900
C361        C  0.01772808  0.90427317  0.23107598    -0.03000
C362        C  0.01504800  0.89906302  0.21376727     0.09300
C363        C  0.01553041  0.92744555  0.20693851     0.03100
H364        H  0.01771976  0.88715078  0.24064946     0.10700
H365        H  0.01347937  0.93223200  0.19367366     0.09800
N366        N  0.02590546  0.48413387  0.27895758    -0.34100
N367        N  0.01949433  0.50978427  0.27906314    -0.26200
C368        C  0.01860419  0.51905752  0.29520960    -0.01500
C369        C  0.02523792  0.49860935  0.30573940     0.07100
C370        C  0.02968074  0.47664972  0.29502923     0.05200
H371        H  0.01409592  0.53963399  0.29899208     0.10300
H372        H  0.02807549  0.95099990  0.29932862     0.09200
C373        C  0.99822650  0.76185949  0.17160168     0.04400
C374        C  0.99475830  0.75989434  0.15379628     0.04300
C375        C  0.99286866  0.73175349  0.14508984    -0.16200
C376        C  0.99468244  0.70577529  0.15394112     0.04400
C377        C  0.99821314  0.70779302  0.17173820     0.04300
C378        C  0.99981686  0.73577215  0.18045530    -0.16200
H379        H  0.00269045  0.73744408  0.19415261     0.06400
H380        H  0.99037453  0.73025604  0.13137205     0.06400
C381        C  0.22699292  0.72001069  0.82470362     0.04400
C382        C  0.22440760  0.72296107  0.84238000     0.04300
C383        C  0.25074685  0.75091764  0.85120921    -0.16200
C384        C  0.27961065  0.77591888  0.84259673     0.04400
C385        C  0.28200399  0.77316799  0.82490170     0.04300
C386        C  0.25566550  0.74524740  0.81607631    -0.16200
H387        H  0.25764606  0.74297553  0.80246140     0.06400
H388        H  0.24892219  0.75306353  0.86483105     0.06400
C389        C  0.28164714  0.51591780  0.48936674     0.04400
C390        C  0.25619099  0.96637722  0.50543627     0.04300
C391        C  0.28300643  0.96580363  0.51426553    -0.16200
C392        C  0.30994139  0.96559560  0.50545793     0.04400
C393        C  0.33851126  0.52170570  0.48957318     0.04300
C394        C  0.30995971  0.51839811  0.48066956    -0.16200
H395        H  0.30968967  0.51753982  0.46691468     0.06400
H396        H  0.28298156  0.96566368  0.52802964     0.06400
C397        C  0.00080627  0.68173965  0.18120561    -0.16400
C398        C  0.00320539  0.65985465  0.18883112     0.07600
C399        C  0.00608837  0.63406027  0.19755929     0.09500
C400        C  0.00846263  0.61192131  0.20493975    -0.17300
C401        C  0.01115954  0.86948381  0.20478900    -0.16400
C402        C  0.00774664  0.84451192  0.19734220     0.07600
C403        C  0.00389518  0.81537744  0.18858654     0.09500
C404        C  0.00100680  0.79078863  0.18096216    -0.17300
C405        C  0.99222988  0.60185099  0.12174362    -0.16400
C406        C  0.99257363  0.62579335  0.12884575     0.07600
C407        C  0.99295116  0.65378285  0.13718520     0.09500
C408        C  0.99350454  0.67756083  0.14457642    -0.17300
C409        C  0.99726473  0.86179189  0.11993820    -0.16400
C410        C  0.99556885  0.83776105  0.12750227     0.07600
C411        C  0.99432203  0.81004303  0.13646487     0.09500
C412        C  0.99403881  0.78688685  0.14424679    -0.17300
C413        C  0.41090875  0.96502640  0.53939059    -0.16400
C414        C  0.38768081  0.96507703  0.53170656     0.07600
C415        C  0.36050503  0.96520621  0.52270892     0.09500
C416        C  0.33739668  0.96533883  0.51494481    -0.17300
C417        C  0.22908443  0.96702694  0.51489435    -0.16400
C418        C  0.20642631  0.96805589  0.52252491     0.07600
C419        C  0.18008071  0.96987852  0.53129532     0.09500
C420        C  0.15784088  0.97191168  0.53879373    -0.17300
C421        C  0.04330308  0.48786756  0.33354201    -0.14400
C422        C  0.02687780  0.50045311  0.32441207    -0.29500
H423        H  0.05672559  0.47654634  0.32718580     0.14700
H424        H  0.01554967  0.51392063  0.33071284     0.15200
C425        C  0.44228155  0.52628332  0.45641960    -0.16400
C426        C  0.41857584  0.52564356  0.46386526     0.07600
C427        C  0.39070435  0.52465294  0.47258155     0.09500
C428        C  0.36690883  0.52351458  0.48017386    -0.17300
C429        C  0.17601695  0.50207153  0.45353902    -0.16400
C430        C  0.20021137  0.50499212  0.46162300     0.07600
C431        C  0.22841478  0.50877723  0.47135888     0.09500
C432        C  0.25252027  0.51207922  0.47966415    -0.17300
C433        C  0.07306726  0.00017219  0.66879302    -0.14400
C434        C  0.04413459  0.98621080  0.65943888    -0.29500
H435        H  0.09792146  0.01184210  0.66263540     0.14700
H436        H  0.01947022  0.97686100  0.66557439     0.15200
C437        C  0.39009766  0.86699134  0.79219714    -0.16400
C438        C  0.36545441  0.84533052  0.79966165     0.07600
C439        C  0.33629880  0.81998596  0.80823823     0.09500
C440        C  0.31144925  0.79851563  0.81565898    -0.17300
C441        C  0.20096874  0.69093746  0.81526324    -0.16400
C442        C  0.17957978  0.66631705  0.80745902     0.07600
C443        C  0.15473655  0.63728147  0.79836189     0.09500
C444        C  0.13344110  0.61249258  0.79062320    -0.17300
C445        C  0.56498875  0.51451638  0.99145237    -0.14400
C446        C  0.50786486  0.97461281  0.00218994    -0.29500
H447        H  0.57857439  0.53902477  0.99806008     0.14700
H448        H  0.96693695  0.44709851  0.99574240     0.15200
C449        C  0.30683060  0.80385068  0.85210676    -0.16400
C450        C  0.33033197  0.82726675  0.85961080     0.07600
C451        C  0.35837019  0.85477426  0.86806651     0.09500
C452        C  0.38245450  0.87832765  0.87517685    -0.17300
C453        C  0.11695345  0.62774982  0.87489623    -0.16400
C454        C  0.14167234  0.64989596  0.86768058     0.07600
C455        C  0.17060428  0.67566718  0.85914353     0.09500
C456        C  0.19518642  0.69739090  0.85166307    -0.17300
N457        N  0.93460680  0.44461533  0.90172401    -0.25200
N458        N  0.94718127  0.46156702  0.88745367    -0.33100
C459        C  0.92681954  0.44285248  0.87445390     0.03100
C460        C  0.90033397  0.41290031  0.88095078     0.09100
C461        C  0.90593861  0.41472164  0.89821806    -0.04000
H462        H  0.93115772  0.45040396  0.86128233     0.09800
H463        H  0.89049891  0.39574907  0.90754096     0.11000
Cu464      Cu  0.56337829  0.52611044  0.88459203     0.44200
Cu465      Cu  0.95665502  0.46272774  0.92534150     0.42000
Cu466      Cu  0.54352164  0.04630197  0.92555711     0.43900
N467        N  0.54468660  0.05225981  0.88749229    -0.32600
N468        N  0.56037511  0.06744435  0.90184820    -0.26900
C469        C  0.58893364  0.09719618  0.89830258    -0.03000
C470        C  0.59114429  0.10079725  0.88092893     0.09300
C471        C  0.56284947  0.07198979  0.87440587     0.03100
H472        H  0.60706288  0.11449565  0.90767560     0.10700
H473        H  0.55629490  0.06546841  0.86116516     0.09800
N474        N  0.52425265  0.01872376  0.94763709    -0.34100
N475        N  0.98098233  0.48752885  0.94763245    -0.26200
C476        C  0.97219541  0.47572605  0.96351525    -0.01500
C477        C  0.05960253  0.03097927  0.97399452     0.07100
C478        C  0.53527272  0.02932823  0.96358495     0.05200
H479        H  0.95083461  0.45080172  0.96666591     0.10300
H480        H  0.55586570  0.05464534  0.96702390     0.09200
N481        N  0.57590484  0.04199110  0.75983014    -0.25200
N482        N  0.56106792  0.02961368  0.77460202    -0.33100
C483        C  0.57976645  0.05201530  0.78697659     0.03100
C484        C  0.60754005  0.07963518  0.77959504     0.09100
C485        C  0.60440723  0.07259474  0.76241632    -0.04000
H486        H  0.57327008  0.04866378  0.80030173     0.09800
H487        H  0.62120663  0.08870243  0.75249981     0.11000
Cu488      Cu  0.55745488  0.52881473  0.77525717     0.44200
Cu489      Cu  0.59442564  0.57130881  0.73569938     0.42000
Cu490      Cu  0.51219163  0.49382477  0.73517153     0.43900
N491        N  0.96401070  0.44749231  0.77456148    -0.32600
N492        N  0.94905306  0.43380581  0.75985252    -0.26900
C493        C  0.91822705  0.40600575  0.76270873    -0.03000
C494        C  0.91368192  0.40215122  0.78000742     0.09300
C495        C  0.94305393  0.42875243  0.78719776     0.03100
H496        H  0.90063049  0.38966062  0.75290176     0.10700
H497        H  0.94891224  0.43398807  0.80058181     0.09800
N498        N  0.53691797  0.52014659  0.71342943    -0.34100
N499        N  0.56758934  0.54803365  0.71365087    -0.26200
C500        C  0.57752694  0.55801477  0.69762905    -0.01500
C501        C  0.55172016  0.53538848  0.68680601     0.07100
C502        C  0.52627200  0.51186494  0.69723809     0.05200
H503        H  0.56347199  0.01798187  0.69495709     0.10300
H504        H  0.96524466  0.44387971  0.69498628     0.09200
N505        N  0.59441677  0.96753982  0.42620825    -0.25200
N506        N  0.58021477  0.96931390  0.44057964    -0.33100
C507        C  0.60032470  0.97097257  0.45363448     0.03100
C508        C  0.62834837  0.97021683  0.44707365     0.09100
C509        C  0.62396385  0.96805798  0.42971877    -0.04000
H510        H  0.59490707  0.97261325  0.46685633     0.09800
H511        H  0.64094308  0.96699162  0.42031997     0.11000
Cu512      Cu  0.53426556  0.96937801  0.44186965     0.44200
Cu513      Cu  0.57342653  0.96482477  0.40246369     0.42000
Cu514      Cu  0.49541577  0.96933420  0.40167786     0.43900
N515        N  0.48794585  0.96848815  0.43962350    -0.32600
N516        N  0.47373287  0.96847996  0.42491020    -0.26900
C517        C  0.94875994  0.97985313  0.42892983    -0.03000
C518        C  0.94342723  0.97686324  0.44620197     0.09300
C519        C  0.46747419  0.96763108  0.45224641     0.03100
H520        H  0.93255385  0.98189976  0.41937704     0.10700
H521        H  0.47283600  0.96745637  0.46562763     0.10400
N522        N  0.52063380  0.96769461  0.38009132    -0.34100
N523        N  0.54853028  0.96486307  0.38035435    -0.26200
C524        C  0.55774148  0.96314676  0.36432204    -0.01500
C525        C  0.53481975  0.96551711  0.35349288     0.07100
C526        C  0.51158059  0.96833056  0.36389868     0.05200
H527        H  0.57975676  0.96086346  0.36082205     0.10300
H528        H  0.48940434  0.97012938  0.36004664     0.09200
N529        N  0.99138408  0.50332344  0.56908435    -0.25200
N530        N  0.00831365  0.50682957  0.55483951    -0.33100
C531        C  0.99075725  0.51015793  0.54184289     0.03100
C532        C  0.96152950  0.50868224  0.54827262     0.09100
C533        C  0.96260946  0.50436936  0.56553028    -0.04000
H534        H  0.99884691  0.51366141  0.52874554     0.09800
H535        H  0.94407581  0.50242998  0.57484120     0.11000
Cu536      Cu  0.57184581  0.53753600  0.55178797     0.44200
Cu537      Cu  0.00855280  0.49814598  0.59275576     0.42000
Cu538      Cu  0.61891608  0.54934350  0.59151323     0.43900
N539        N  0.61860774  0.53862998  0.55358317    -0.32600
N540        N  0.63568396  0.54303126  0.56795965    -0.26900
C541        C  0.66444784  0.54179438  0.56471548    -0.03000
C542        C  0.66541009  0.53640241  0.54753089     0.09300
C543        C  0.63611792  0.53452216  0.54082457     0.03100
H544        H  0.68307238  0.54438841  0.57418330     0.10700
H545        H  0.62797307  0.53028171  0.52765808     0.09800
N546        N  0.59389513  0.55023042  0.61344067    -0.34100
N547        N  0.56257224  0.54596729  0.61342028    -0.26200
C548        C  0.55257168  0.54549494  0.62951447    -0.01500
C549        C  0.57898118  0.54988330  0.64018518     0.07100
C550        C  0.60486818  0.55306137  0.62958533     0.05200
H551        H  0.99671427  0.49104628  0.63421201     0.10300
H552        H  0.62945506  0.55626216  0.63333196     0.09200
N553        N  0.52864186  0.41845386  0.09109081    -0.25200
N554        N  0.52924360  0.43386063  0.10554791    -0.33100
C555        C  0.52832503  0.41416328  0.11853121     0.03100
C556        C  0.52708736  0.38514446  0.11187480     0.09100
C557        C  0.52734979  0.38856710  0.09449373    -0.04000
H558        H  0.52904569  0.42077693  0.13181397     0.09800
H559        H  0.52721248  0.37099831  0.08501834     0.11000
Cu560      Cu  0.51396036  0.97353819  0.10941359     0.44200
Cu561      Cu  0.53150927  0.43944956  0.06739986     0.42000
Cu562      Cu  0.51740839  0.01629826  0.07016661     0.43900
N563        N  0.51511936  0.02018811  0.10829118    -0.32600
N564        N  0.51651740  0.03575390  0.09388941    -0.26900
C565        C  0.51722776  0.06539716  0.09732992    -0.03000
C566        C  0.51625642  0.06854708  0.11468713     0.09300
C567        C  0.51495604  0.03959983  0.12131807     0.03100
H568        H  0.51854564  0.08334501  0.08788632     0.10700
H569        H  0.51418410  0.03320022  0.13457270     0.09800
N570        N  0.03558486  0.01611656  0.04700382    -0.34100
N571        N  0.97568161  0.45625046  0.04766775    -0.26200
C572        C  0.97361479  0.44559754  0.03149261    -0.01500
C573        C  0.97819794  0.47198176  0.02094430     0.07100
C574        C  0.04252053  0.02856838  0.03112816     0.05200
H575        H  0.96994051  0.42084330  0.02770203     0.10300
H576        H  0.04748211  0.05380701  0.02760764     0.09200
N577        N  0.52587827  0.04006145  0.23471433    -0.25200
N578        N  0.52938293  0.02722055  0.22020089    -0.33100
C579        C  0.53138931  0.04799237  0.20749734     0.03100
C580        C  0.52906907  0.07499673  0.21444666     0.09100
C581        C  0.52561469  0.06928538  0.23166166    -0.04000
H582        H  0.53443065  0.04377629  0.19423781     0.09800
H583        H  0.52322499  0.08521219  0.24129186     0.11000
Cu584      Cu  0.53168247  0.98228214  0.21839828     0.44200
Cu585      Cu  0.52215432  0.01795934  0.25810991     0.42000
Cu586      Cu  0.56568867  0.46321599  0.25812170     0.43900
N587        N  0.55649803  0.45069887  0.22036713    -0.32600
N588        N  0.56095580  0.43904651  0.23496009    -0.26900
C589        C  0.56020839  0.40915011  0.23216219    -0.03000
C590        C  0.55509543  0.40185425  0.21502381     0.09300
C591        C  0.55282988  0.42856933  0.20788603     0.03100
H592        H  0.56253690  0.39362627  0.24192260     0.10700
H593        H  0.54822892  0.43144376  0.19467983     0.09800
N594        N  0.52575123  0.96537500  0.28000957    -0.34100
N595        N  0.52171335  0.99252852  0.27994762    -0.26200
C596        C  0.51885626  0.00092091  0.29602210    -0.01500
C597        C  0.52176028  0.97827388  0.30669289     0.07100
C598        C  0.52603895  0.95601715  0.29613804     0.05200
H599        H  0.51565276  0.02233597  0.29966903     0.10300
H600        H  0.57544821  0.46260199  0.29965499     0.09200
C601        C  0.53487877  0.26223835  0.17363446     0.04400
C602        C  0.53022949  0.25970573  0.15588484     0.04300
C603        C  0.52646690  0.23071475  0.14723043    -0.16200
C604        C  0.52715634  0.20417343  0.15608505     0.04400
C605        C  0.53152605  0.20655928  0.17383278     0.04300
C606        C  0.53541524  0.23559239  0.18249712    -0.16200
H607        H  0.53888253  0.23745985  0.19615962     0.06400
H608        H  0.52303486  0.22882171  0.13356307     0.06400
C609        C  0.72582700  0.22126775  0.82036759     0.04400
C610        C  0.72255890  0.22461859  0.83795077     0.04300
C611        C  0.74759252  0.25364618  0.84668322    -0.16200
C612        C  0.77578768  0.27948082  0.83806201     0.04400
C613        C  0.77886980  0.27639804  0.82044650     0.04300
C614        C  0.75390711  0.24727438  0.81171725    -0.16200
H615        H  0.75639906  0.24479335  0.79816393     0.06400
H616        H  0.74519727  0.25607070  0.86024380     0.06400
C617        C  0.75951124  0.97466856  0.48961955     0.04400
C618        C  0.78814696  0.52522735  0.50446860     0.04300
C619        C  0.81467159  0.52411315  0.51329716    -0.16200
C620        C  0.84114895  0.52293713  0.50451367     0.04400
C621        C  0.81332328  0.97408027  0.48908783     0.04300
C622        C  0.78613075  0.97437953  0.48053179    -0.16200
H623        H  0.78566272  0.97435967  0.46677617     0.06400
H624        H  0.81459821  0.52395075  0.52706042     0.06400
C625        C  0.53190951  0.17934362  0.18327537    -0.16400
C626        C  0.53172413  0.15575806  0.19053983     0.07600
C627        C  0.53105945  0.12758594  0.19867937     0.09500
C628        C  0.53024200  0.10346209  0.20568909    -0.17300
C629        C  0.55114995  0.37177164  0.20647406    -0.16400
C630        C  0.54750545  0.34650612  0.19919362     0.07600
C631        C  0.54305891  0.31699273  0.19051405     0.09500
C632        C  0.53926804  0.29195406  0.18293731    -0.17300
C633        C  0.51739596  0.09678964  0.12385764    -0.16400
C634        C  0.51886655  0.12112134  0.13114444     0.07600
C635        C  0.52116371  0.15004066  0.13949276     0.09500
C636        C  0.52361109  0.17478824  0.14679771    -0.17300
C637        C  0.52716210  0.35779274  0.12115630    -0.16400
C638        C  0.52760993  0.33513964  0.12903577     0.07600
C639        C  0.52843509  0.30885115  0.13834367     0.09500
C640        C  0.52925837  0.28649665  0.14632373    -0.17300
C641        C  0.93574123  0.51187645  0.53895408    -0.16400
C642        C  0.91424088  0.51474017  0.53111563     0.07600
C643        C  0.88906390  0.51808532  0.52192965     0.09500
C644        C  0.86741390  0.52063175  0.51405288    -0.17300
C645        C  0.76137970  0.52663575  0.51397175    -0.16400
C646        C  0.73919685  0.52829322  0.52179651     0.07600
C647        C  0.71337959  0.53074484  0.53084727     0.09500
C648        C  0.69145814  0.53319395  0.53849147    -0.17300
C649        C  0.53534552  0.96467151  0.33482870    -0.14400
C650        C  0.52053037  0.97844272  0.32535398    -0.29500
H651        H  0.54960320  0.95390935  0.32879974     0.14700
H652        H  0.50866493  0.99164154  0.33139133     0.15200
C653        C  0.91517103  0.97590218  0.45520540    -0.16400
C654        C  0.89146968  0.97520780  0.46270587     0.07600
C655        C  0.86387566  0.97455876  0.47157863     0.09500
C656        C  0.84062620  0.97419137  0.47937338    -0.17300
C657        C  0.65641689  0.97148491  0.45637103    -0.16400
C658        C  0.68013813  0.97252706  0.46401589     0.07600
C659        C  0.70796865  0.97364440  0.47284171     0.09500
C660        C  0.73161760  0.97434989  0.48040296    -0.17300
C661        C  0.55093241  0.53559029  0.66811437    -0.14400
C662        C  0.57980796  0.55065148  0.65888634    -0.29500
H663        H  0.52609816  0.52154004  0.66183676     0.14700
H664        H  0.60471480  0.56234134  0.66514735     0.15200
C665        C  0.88467794  0.37531082  0.78867322    -0.16400
C666        C  0.86025216  0.35244765  0.79572208     0.07600
C667        C  0.83168594  0.32555594  0.80394275     0.09500
C668        C  0.80748019  0.30285494  0.81119951    -0.17300
C669        C  0.70083770  0.19125104  0.81106834    -0.16400
C670        C  0.67979856  0.16583387  0.80361353     0.07600
C671        C  0.65493060  0.13583197  0.79512105     0.09500
C672        C  0.63347197  0.11017030  0.78799471    -0.17300
C673        C  0.05849115  0.03191799  0.99269492    -0.14400
C674        C  0.97851361  0.47172664  0.00224219    -0.29500
H675        H  0.07155850  0.05670222  0.99907042     0.14700
H676        H  0.49674455  0.94981096  0.99585580     0.15200
C677        C  0.80154184  0.30869004  0.84751518    -0.16400
C678        C  0.82368387  0.33298546  0.85518632     0.07600
C679        C  0.85014070  0.36122505  0.86404629     0.09500
C680        C  0.87298857  0.38503746  0.87166153    -0.17300
C681        C  0.61852849  0.12788596  0.87157361    -0.16400
C682        C  0.64201286  0.15041525  0.86387738     0.07600
C683        C  0.66989855  0.17649935  0.85493849     0.09500
C684        C  0.69386254  0.19851268  0.84726259    -0.17300
N685        N  0.00404240  0.96602211  0.90173455    -0.25200
N686        N  0.01854701  0.98021109  0.88716133    -0.33100
C687        C  0.99869697  0.96017772  0.87434338     0.03100
C688        C  0.97054656  0.93225398  0.88128855     0.09100
C689        C  0.97459565  0.93663695  0.89861532    -0.04000
H690        H  0.00411656  0.96583496  0.86101472     0.09800
H691        H  0.95724587  0.92006027  0.90824677     0.11000
Cu692      Cu  0.50039527  0.00462274  0.88638209     0.44200
Cu693      Cu  0.02399950  0.98768049  0.92519543     0.42000
Cu694      Cu  0.60391241  0.56237556  0.92523926     0.43900
N695        N  0.60778811  0.57325039  0.88740512    -0.32600
N696        N  0.62261202  0.58645465  0.90221017    -0.26900
C697        C  0.65109662  0.61690150  0.89962308    -0.03000
C698        C  0.65412325  0.62297439  0.88241589     0.09300
C699        C  0.62641765  0.59494290  0.87500888     0.03100
H700        H  0.66840902  0.63318059  0.90952557     0.10700
H701        H  0.62037063  0.59043226  0.86160242     0.09800
N702        N  0.58062268  0.53290781  0.94644318    -0.34100
N703        N  0.04737017  0.01484432  0.94714054    -0.26200
C704        C  0.03767194  0.00473501  0.96316067    -0.01500
C705        C  0.99419226  0.50121283  0.97465527     0.07100
C706        C  0.58854903  0.54204107  0.96282118     0.05200
H707        H  0.01583869  0.98033684  0.96658793     0.10300
H708        H  0.60876566  0.56686773  0.96717318     0.09200
N709        N  0.61668399  0.59044488  0.75917856    -0.25200
N710        N  0.60332605  0.57490313  0.77367636    -0.33100
C711        C  0.62397531  0.59395442  0.78651729     0.03100
C712        C  0.65143939  0.62268758  0.77967935     0.09100
C713        C  0.64613888  0.61979333  0.76237856    -0.04000
H714        H  0.61925606  0.58739745  0.79979193     0.09800
H715        H  0.66237256  0.63764216  0.75281461     0.11000
Cu716      Cu  0.51518663  0.98367371  0.77728476     0.44200
Cu717      Cu  0.55601138  0.01768502  0.73671147     0.42000
Cu718      Cu  0.47201227  0.94178200  0.73815051     0.43900
N719        N  0.02052205  0.97324581  0.77411426    -0.32600
N720        N  0.00559874  0.95786528  0.75966709    -0.26900
C721        C  0.97558851  0.92945537  0.76302457    -0.03000
C722        C  0.97157173  0.92697802  0.78037624     0.09300
C723        C  0.00037941  0.95502437  0.78708783     0.03100
H724        H  0.95810227  0.91187136  0.75351610     0.10700
H725        H  0.00630578  0.96171117  0.80035304     0.09800
N726        N  0.49791834  0.96314182  0.71583490    -0.34100
N727        N  0.52914293  0.99021004  0.71530944    -0.26200
C728        C  0.53911314  0.99685282  0.69903881    -0.01500
C729        C  0.51273975  0.97289142  0.68886122     0.07100
C730        C  0.48699984  0.95208582  0.69991798     0.05200
H731        H  0.60165650  0.58025700  0.69417401     0.10300
H732        H  0.02015091  0.96215948  0.69485861     0.09200
N733        N  0.61877136  0.51654906  0.42532480    -0.25200
N734        N  0.60634442  0.51937010  0.44007658    -0.33100
C735        C  0.62752232  0.52089084  0.45258251     0.03100
C736        C  0.65439354  0.51893957  0.44529897     0.09100
C737        C  0.64817660  0.51622318  0.42806117    -0.04000
H738        H  0.62381224  0.52363720  0.46592827     0.09800
H739        H  0.66405630  0.51461649  0.41819554     0.11000
Cu740      Cu  0.56182652  0.52216517  0.44261403     0.44200
Cu741      Cu  0.59642583  0.51492940  0.40199394     0.42000
Cu742      Cu  0.52409019  0.52853780  0.40312993     0.43900
N743        N  0.51734238  0.52530548  0.44121751    -0.32600
N744        N  0.50378204  0.52784676  0.42676359    -0.26900
C745        C  0.96907157  0.51167997  0.42769387    -0.03000
C746        C  0.96651588  0.51383165  0.44503364     0.09300
C747        C  0.49744983  0.52462037  0.45411994     0.03100
H748        H  0.95219993  0.51245179  0.41811845     0.10700
H749        H  0.50229431  0.52237948  0.46736914     0.10400
N750        N  0.54606776  0.52447124  0.38082636    -0.34100
N751        N  0.57185772  0.51824896  0.38034960    -0.26200
C752        C  0.57918748  0.51565339  0.36405392    -0.01500
C753        C  0.55698554  0.52068837  0.35381682     0.07100
C754        C  0.53651358  0.52637664  0.36487808     0.05200
H755        H  0.59947504  0.51093387  0.36001776     0.10300
H756        H  0.51585344  0.53105257  0.36158685     0.09200
N757        N  0.97822605  0.97568674  0.56891950    -0.25200
N758        N  0.99237174  0.97544249  0.55426157    -0.33100
C759        C  0.97166382  0.97401478  0.54155398     0.03100
C760        C  0.94331331  0.97333699  0.54863902     0.09100
C761        C  0.94815249  0.97446090  0.56594954    -0.04000
H762        H  0.97695874  0.97362369  0.52819670     0.09800
H763        H  0.93122236  0.97453506  0.57567675     0.11000
Cu764      Cu  0.53559347  0.97139580  0.55362740     0.44200
Cu765      Cu  0.00040145  0.97789945  0.59227211     0.42000
Cu766      Cu  0.58065096  0.98419085  0.59359088     0.43900
N767        N  0.58416366  0.97685924  0.55571022    -0.32600
N768        N  0.60072114  0.98181540  0.57028895    -0.26900
C769        C  0.63115282  0.98380155  0.56734744    -0.03000
C770        C  0.63372447  0.97993635  0.55013520     0.09300
C771        C  0.60363508  0.97557762  0.54310037     0.03100
H772        H  0.64975697  0.98733846  0.57705208     0.10700
H773        H  0.59623666  0.97141562  0.52984605     0.09800
N774        N  0.55358822  0.98180687  0.61529685    -0.34100
N775        N  0.52137568  0.97506965  0.61514987    -0.26200
C776        C  0.51102923  0.97429180  0.63121740    -0.01500
C777        C  0.53816076  0.98107512  0.64197207     0.07100
C778        C  0.56472777  0.98587508  0.63145356     0.05200
H779        H  0.99388693  0.97884038  0.63390991     0.10300
H780        H  0.59021511  0.99165883  0.63526267     0.09200
N781        N  0.51188564  0.91253650  0.09197818    -0.25200
N782        N  0.51369871  0.92747603  0.10676168    -0.33100
C783        C  0.51599533  0.90841502  0.11922268     0.03100
C784        C  0.51558162  0.88031741  0.11187279     0.09100
C785        C  0.51298982  0.88360365  0.09463860    -0.04000
H786        H  0.51815357  0.91476873  0.13260615     0.09800
H787        H  0.51234501  0.86651646  0.08474407     0.11000
Cu788      Cu  0.53262059  0.48153681  0.10708984     0.44200
Cu789      Cu  0.50936066  0.93253231  0.06876426     0.42000
Cu790      Cu  0.54735700  0.52666043  0.06755361     0.43900
N791        N  0.53716087  0.52963327  0.10515546    -0.32600
N792        N  0.54278969  0.54623239  0.09066743    -0.26900
C793        C  0.54399528  0.57632307  0.09356121    -0.03000
C794        C  0.53891905  0.57864723  0.11066219     0.09300
C795        C  0.53467086  0.54874569  0.11767335     0.03100
H796        H  0.54798772  0.59491482  0.08391408     0.10700
H797        H  0.52992276  0.54130112  0.13085168     0.09800
N798        N  0.98083571  0.48784581  0.04772983    -0.34100
N799        N  0.02927500  0.98409490  0.04674679    -0.26200
C800        C  0.03161552  0.97518379  0.03072363    -0.01500
C801        C  0.04015527  0.00294308  0.02041040     0.07100
C802        C  0.98257993  0.49832992  0.03166996     0.05200
H803        H  0.02696858  0.95010631  0.02683000     0.10300
H804        H  0.98659896  0.52325731  0.02813366     0.09200
N805        N  0.54888079  0.55362983  0.23421896    -0.25200
N806        N  0.55038101  0.53933872  0.21976261    -0.33100
C807        C  0.54962081  0.55819697  0.20677442     0.03100
C808        C  0.54758828  0.58552075  0.21344286     0.09100
C809        C  0.54715038  0.58197983  0.23081249    -0.04000
H810        H  0.55066687  0.55250205  0.19351140     0.09800
H811        H  0.54596549  0.59886602  0.24029638     0.11000
Cu812      Cu  0.55385158  0.49518876  0.21823861     0.44200
Cu813      Cu  0.55068682  0.53498048  0.25796206     0.42000
Cu814      Cu  0.53019619  0.94195053  0.25820182     0.43900
N815        N  0.53343908  0.93708943  0.22016729    -0.32600
N816        N  0.53290736  0.92239781  0.23473621    -0.26900
C817        C  0.53376142  0.89339726  0.23159630    -0.03000
C818        C  0.53492120  0.88981239  0.21425286     0.09300
C819        C  0.53467810  0.91781746  0.20735970     0.03100
H820        H  0.53323487  0.87612189  0.24121357     0.10700
H821        H  0.53503963  0.92362954  0.19402704     0.09800
N822        N  0.56478372  0.48883768  0.27990961    -0.34100
N823        N  0.55797226  0.51422315  0.27992939    -0.26200
C824        C  0.55791977  0.52424311  0.29604320    -0.01500
C825        C  0.56526698  0.50426682  0.30664782     0.07100
C826        C  0.56962534  0.48227179  0.29598419     0.05200
H827        H  0.55341948  0.54487528  0.29968239     0.10300
H828        H  0.52881898  0.93440140  0.29984750     0.09200
C829        C  0.53419302  0.76053300  0.17086722     0.04400
C830        C  0.53065689  0.75867926  0.15306096     0.04300
C831        C  0.53092205  0.73179011  0.14409957    -0.16200
C832        C  0.53460297  0.70664124  0.15270138     0.04400
C833        C  0.53790394  0.70838133  0.17051183     0.04300
C834        C  0.53771274  0.73529658  0.17946471    -0.16200
H835        H  0.54032680  0.73660930  0.19318251     0.06400
H836        H  0.52832056  0.73047377  0.13039062     0.06400
C837        C  0.78218856  0.75091726  0.82222783     0.04400
C838        C  0.78182766  0.75201202  0.84008981     0.04300
C839        C  0.80919791  0.77902111  0.84886756    -0.16200
C840        C  0.83697034  0.80484319  0.84001690     0.04400
C841        C  0.83739696  0.80372279  0.82217050     0.04300
C842        C  0.80996075  0.77680221  0.81337930    -0.16200
H843        H  0.81028949  0.77591642  0.79962800     0.06400
H844        H  0.80898817  0.77983535  0.86262252     0.06400
C845        C  0.78801555  0.52500084  0.48658876     0.04400
C846        C  0.76016504  0.97494286  0.50748585     0.04300
C847        C  0.78722952  0.97439482  0.51603735    -0.16200
C848        C  0.81370965  0.97383293  0.50695296     0.04400
C849        C  0.84140704  0.52336918  0.48664094     0.04300
C850        C  0.81477661  0.52431789  0.47779335    -0.16200
H851        H  0.81473352  0.52425088  0.46403276     0.06400
H852        H  0.78770310  0.97442556  0.52980239     0.06400
C853        C  0.54121396  0.68266946  0.17982851    -0.16400
C854        C  0.54341522  0.66078868  0.18751977     0.07600
C855        C  0.54532970  0.63478333  0.19650005     0.09500
C856        C  0.54650672  0.61235678  0.20420547    -0.17300
C857        C  0.53518914  0.86204903  0.20521068    -0.16400
C858        C  0.53509322  0.83869269  0.19754330     0.07600
C859        C  0.53475138  0.81135029  0.18842322     0.09500
C860        C  0.53443292  0.78813329  0.18050830    -0.17300
C861        C  0.53778922  0.60630581  0.11933681    -0.16400
C862        C  0.53683995  0.62945383  0.12665929     0.07600
C863        C  0.53580884  0.65647032  0.13539362     0.09500
C864        C  0.53510170  0.67938838  0.14308837    -0.17300
C865        C  0.51828554  0.85363541  0.12038781    -0.16400
C866        C  0.52078477  0.83145787  0.12761619     0.07600
C867        C  0.52396693  0.80579152  0.13623541     0.09500
C868        C  0.52690967  0.78417827  0.14377763    -0.17300
C869        C  0.91494163  0.97244134  0.53980608    -0.16400
C870        C  0.89135454  0.97218311  0.53240173     0.07600
C871        C  0.86407687  0.97245906  0.52370266     0.09500
C872        C  0.84103686  0.97303492  0.51617171    -0.17300
C873        C  0.73344630  0.97595905  0.51721243    -0.16400
C874        C  0.71097713  0.97705389  0.52504496     0.07600
C875        C  0.68440050  0.97836298  0.53394899     0.09500
C876        C  0.66144350  0.97927659  0.54139208    -0.17300
C877        C  0.55491972  0.52042562  0.33511452    -0.14400
C878        C  0.56836504  0.50561484  0.32532338    -0.29500
H879        H  0.54061131  0.53133492  0.32934872     0.14700
H880        H  0.58071368  0.49271034  0.33114732     0.15200
C881        C  0.94046554  0.51709721  0.45403938    -0.16400
C882        C  0.91805377  0.51930939  0.46132658     0.07600
C883        C  0.89136963  0.52124273  0.46979822     0.09500
C884        C  0.86851582  0.52239471  0.47723610    -0.17300
C885        C  0.68349814  0.52060145  0.45385057    -0.16400
C886        C  0.70795837  0.52211378  0.46103219     0.07600
C887        C  0.73642778  0.52375197  0.46957015     0.09500
C888        C  0.76029632  0.52472256  0.47711060    -0.17300
C889        C  0.51120774  0.97005539  0.67018980    -0.14400
C890        C  0.53964297  0.98395347  0.66064298    -0.29500
H891        H  0.48612919  0.95511754  0.66425148     0.14700
H892        H  0.56481017  0.99681549  0.66666434     0.15200
C893        C  0.94309292  0.90057778  0.78949354    -0.16400
C894        C  0.91881084  0.87822370  0.79684265     0.07600
C895        C  0.89018226  0.85202242  0.80531992     0.09500
C896        C  0.86589530  0.82983255  0.81274374    -0.17300
C897        C  0.75442615  0.72343635  0.81278629    -0.16400
C898        C  0.73101647  0.70036132  0.80508146     0.07600
C899        C  0.70338770  0.67326897  0.79621879     0.09500
C900        C  0.67968329  0.65013598  0.78869859    -0.17300
C901        C  0.99389139  0.50093495  0.99334109    -0.14400
C902        C  0.04268702  0.00299174  0.00177488    -0.29500
H903        H  0.00761172  0.52547940  0.99990413     0.14700
H904        H  0.53694686  0.46071984  0.99378188     0.15200
C905        C  0.86501842  0.83206377  0.84941288    -0.16400
C906        C  0.88907417  0.85502411  0.85680860     0.07600
C907        C  0.91762937  0.88198155  0.86518784     0.09500
C908        C  0.94198250  0.90497317  0.87239472    -0.17300
C909        C  0.68121251  0.65188843  0.87386581    -0.16400
C910        C  0.70402178  0.67562249  0.86643246     0.07600
C911        C  0.73086644  0.70277265  0.85746593     0.09500
C912        C  0.75395438  0.72543918  0.84963016    -0.17300
loop_ 
_geom_bond_atom_site_label_1 
_geom_bond_atom_site_label_2 
_geom_bond_distance 
_geom_bond_site_symmetry_2 
_ccdc_geom_bond_type 
N1            N2   1.323       .  A
N1            C5   1.344       .  A
N1           Cu9   2.068       .  S
N2            C3   1.346       .  A
N2         Cu464   2.072       .  S
C3            C4   1.380       .  A
C3            H6   1.081       .  S
C4            C5   1.377       .  A
C4          C224   1.434       .  S
C5            H7   1.082       .  S
Cu8         N458   2.076       .  S
Cu8         N239   2.077   1_655  S
Cu9          N19   2.068       .  S
Cu10         N12   2.076       .  S
Cu10         N18   2.076       .  S
N11          N12   1.324       .  A
N11          C15   1.345       .  A
N11        Cu236   2.073       .  S
N12          C13   1.345       .  A
C13          C14   1.379       .  A
C13          H16   1.083       .  S
C14          C15   1.379       .  A
C14         C225   1.437       .  S
C15          H17   1.082       .  S
N18         N703   1.322       .  A
N18          C22   1.346       .  A
N19         N702   1.322       .  A
N19          C20   1.345       .  A
C20         C249   1.385       .  A
C20          H23   1.081       .  S
C21         C248   1.385   1_545  A
C21         C478   1.381       .  A
C21         C217   1.474       .  S
C22         C477   1.383       .  A
C22          H24   1.082       .  S
N25          N26   1.324       .  A
N25          C29   1.346       .  A
N25        Cu261   2.074       .  S
N26          C27   1.344       .  A
N26        Cu260   2.071       .  S
C27          C28   1.378       .  A
C27          H30   1.082       .  S
C28          C29   1.379       .  A
C28         C216   1.435       .  S
C29          H31   1.082       .  S
Cu32        N254   2.075       .  S
Cu32        N491   2.075   1_455  S
Cu33         N43   2.078       .  S
Cu33        N253   2.078       .  S
Cu34         N42   2.071   1_655  S
Cu34        N492   2.071       .  S
N35          N36   1.324       .  A
N35          C39   1.346       .  A
N35        Cu488   2.074       .  S
N36          C37   1.344       .  A
N36        Cu490   2.073       .  S
C37          C38   1.378       .  A
C37          H40   1.083       .  S
C38          C39   1.379       .  A
C38         C209   1.435       .  S
C39          H41   1.082       .  S
N42          N43   1.322       .  A
N42          C46   1.345   1_455  A
N43          C44   1.346       .  A
C44          C45   1.386       .  A
C44         H275   1.082       .  S
C45          C46   1.381   1_455  A
C45         C205   1.476       .  S
C46         H504   1.081       .  S
H47         C272   1.081       .  S
H48         C502   1.080       .  S
N49          N50   1.324       .  A
N49          C53   1.345       .  A
N49         Cu57   2.075       .  S
N50          C51   1.346       .  A
N50         Cu56   2.077       .  S
C51          C52   1.380       .  A
C51          H54   1.082       .  S
C52          C53   1.379       .  A
C52         C201   1.438       .  S
C53          H55   1.083       .  S
Cu56         N59   2.076   1_455  S
Cu57         N67   2.075       .  S
Cu58         N60   2.072       .  S
Cu58         N66   2.072   1_655  S
N59          N60   1.323       .  A
N59          C63   1.346       .  A
N60         C517   1.345       .  A
C61         N516   1.345       .  A
C61          C62   1.378       .  A
C61          H64   1.082       .  S
C62         C519   1.378       .  A
C62         C197   1.434       .  S
C63         C518   1.380       .  A
C63          H65   1.082       .  S
N66          N67   1.322       .  A
N66          C70   1.344       .  A
N67          C68   1.346       .  A
C68          C69   1.382       .  A
C68          H71   1.081       .  S
C69          C70   1.384       .  A
C69         C193   1.475       .  S
C70          H72   1.083   1_455  S
N73          N74   1.323       .  A
N73          C77   1.345       .  A
N73         Cu81   2.070       .  S
N74          C75   1.347       .  A
N74        Cu536   2.081       .  S
C75          C76   1.382       .  A
C75          H78   1.082       .  S
C76          C77   1.379       .  A
C76         C185   1.440       .  S
C77          H79   1.083       .  S
Cu80         N83   2.074       .  S
Cu80        N530   2.074       .  S
Cu81        N547   2.070       .  S
Cu82         N84   2.075       .  S
Cu82         N90   2.075       .  S
N83          N84   1.323       .  A
N83          C87   1.345       .  A
N84          C85   1.346       .  A
C85          C86   1.380       .  A
C85          H88   1.082       .  S
C86          C87   1.379       .  A
C86         C192   1.438       .  S
C87          H89   1.083       .  S
N90          N91   1.323       .  A
N90          C94   1.345       .  A
N91          C92   1.346       .  A
N91        Cu537   2.076       .  S
C92          C93   1.385       .  A
C92         H551   1.082   1_455  S
C93          C94   1.381       .  A
C93         C206   1.476       .  S
C94          H96   1.082       .  S
H95         C548   1.083       .  S
N97          N98   1.324       .  A
N97         C101   1.345       .  A
N97        Cu105   2.076       .  S
N98          C99   1.346       .  A
N98        Cu332   2.078       .  S
C99         C100   1.380       .  A
C99         H102   1.082       .  S
C100        C101   1.379       .  A
C100        C181   1.438       .  S
C101        H103   1.083       .  S
Cu104       N107   2.074   1_565  S
Cu104       N326   2.074       .  S
Cu105       N571   2.076       .  S
Cu106       N108   2.075       .  S
Cu106       N570   2.075       .  S
N107        N108   1.324       .  A
N107        C111   1.345       .  A
N108        C109   1.345       .  A
C109        C110   1.379       .  A
C109        H112   1.082       .  S
C110        C111   1.378       .  A
C110        C177   1.436       .  S
C111        H113   1.082   1_455  S
N114        N343   1.322       .  A
N114        C118   1.344   1_565  A
N114       Cu562   2.069   1_565  S
N115        N342   1.322       .  A
N115        C116   1.345       .  A
N115       Cu561   2.073       .  S
C116        C117   1.382       .  A
C116        H119   1.081       .  S
C117        C346   1.385       .  A
C117        C218   1.475       .  S
C118        C345   1.384   1_545  A
C118        H120   1.082       .  S
N121        N122   1.324       .  A
N121        C125   1.346       .  A
N121       Cu129   2.076       .  S
N122        C123   1.346       .  A
N122       Cu128   2.074   1_545  S
C123        C124   1.380       .  A
C123        H126   1.082       .  S
C124        C125   1.379       .  A
C124        C172   1.438       .  S
C125        H127   1.083       .  S
Cu128       N359   2.074       .  S
Cu129       N139   2.076       .  S
Cu130       N132   2.069       .  S
Cu130       N366   2.069       .  S
N131        N132   1.323       .  A
N131        C135   1.346       .  A
N131       Cu356   2.076       .  S
N132        C133   1.344       .  A
C133        C134   1.378       .  A
C133        H136   1.082       .  S
C134        C135   1.380       .  A
C134        C173   1.435       .  S
C135        H137   1.082       .  S
N138        N139   1.322   1_565  A
N138        C142   1.344       .  A
N138       Cu358   2.069       .  S
N139        C140   1.346       .  A
C140        C141   1.383   1_545  A
C140        H143   1.082       .  S
C141        C142   1.384       .  A
C141        C194   1.475       .  S
C142        H372   1.082       .  S
H144        C370   1.081       .  S
C145        C146   1.409       .  A
C145        C150   1.402       .  A
C145        C176   1.443       .  S
C146        C147   1.401       .  A
C146        C184   1.446   1_455  S
C147        C148   1.402       .  A
C147        H152   1.085   1_455  S
C148        C149   1.409       .  A
C148        C180   1.443       .  S
C149        C150   1.401       .  A
C149        C169   1.446       .  S
C150        H151   1.084       .  S
C153        C154   1.409       .  A
C153        C158   1.401       .  A
C153        C213   1.442       .  S
C154        C155   1.401       .  A
C154        C228   1.444       .  S
C155        C156   1.401       .  A
C155        H160   1.085       .  S
C156        C157   1.408       .  A
C156        C221   1.442       .  S
C157        C158   1.400       .  A
C157        C212   1.443       .  S
C158        H159   1.085       .  S
C161        C166   1.400       .  A
C161        C390   1.409       .  A
C161        C204   1.445       .  S
C162        C163   1.404       .  A
C162        C389   1.411       .  A
C162        C189   1.446       .  S
C163        C164   1.403       .  A
C163        H168   1.084       .  S
C164        C393   1.409       .  A
C164        C188   1.448       .  S
C165        C166   1.401       .  A
C165        C392   1.409       .  A
C165        C200   1.442       .  S
C166        H167   1.085       .  S
C169        C170   1.206       .  T
C170        C171   1.413       .  S
C171        C172   1.206       .  T
C173        C174   1.204       .  T
C174        C175   1.410       .  S
C175        C176   1.204       .  T
C177        C178   1.205       .  T
C178        C179   1.410       .  S
C179        C180   1.205       .  T
C181        C182   1.206       .  T
C182        C183   1.413       .  S
C183        C184   1.207       .  T
C185        C186   1.208       .  T
C186        C187   1.415       .  S
C187        C188   1.208       .  T
C189        C190   1.207       .  T
C190        C191   1.413       .  S
C191        C192   1.206       .  T
C193        C194   1.343       .  D
C193        H195   1.086       .  S
C194        H196   1.086   1_565  S
C197        C198   1.204       .  T
C198        C199   1.409       .  S
C199        C200   1.204       .  T
C201        C202   1.206       .  T
C202        C203   1.412       .  S
C203        C204   1.206       .  T
C205        C206   1.342       .  D
C205        H207   1.085   1_455  S
C206        H208   1.086       .  S
C209        C210   1.205       .  T
C210        C211   1.410       .  S
C211        C212   1.205       .  T
C213        C214   1.204       .  T
C214        C215   1.410       .  S
C215        C216   1.204       .  T
C217        C446   1.342   1_546  D
C217        H219   1.085       .  S
C218        C445   1.343   1_554  D
C218        H904   1.085   1_554  S
H220        C902   1.086   1_566  S
C221        C222   1.204       .  T
C222        C223   1.409       .  S
C223        C224   1.204       .  T
C225        C226   1.206       .  T
C226        C227   1.412       .  S
C227        C228   1.206       .  T
N229        N230   1.323       .  A
N229        C233   1.345       .  A
N229       Cu237   2.073       .  S
N230        C231   1.345       .  A
N230       Cu692   2.074   1_565  S
C231        C232   1.379       .  A
C231        H234   1.082       .  S
C232        C233   1.379       .  A
C232        C452   1.436       .  S
C233        H235   1.082       .  S
Cu236       N686   2.073   1_545  S
Cu237       N247   2.073       .  S
Cu238       N240   2.074       .  S
Cu238       N246   2.074       .  S
N239        N240   1.323       .  A
N239        C243   1.346       .  A
N240        C241   1.345       .  A
C241        C242   1.379       .  A
C241        H244   1.083       .  S
C242        C243   1.380       .  A
C242        C453   1.438       .  S
C243        H245   1.083       .  S
N246        N475   1.322   1_455  A
N246        C250   1.345       .  A
N247        N474   1.322   1_565  A
N247        C248   1.345       .  A
C248        H251   1.081       .  S
C249        C706   1.382       .  A
C249        C445   1.475       .  S
C250        C705   1.382   1_455  A
C250        H252   1.081       .  S
N253        N254   1.324       .  A
N253        C257   1.346       .  A
N254        C255   1.345       .  A
C255        C256   1.379       .  A
C255        H258   1.083       .  S
C256        C257   1.380       .  A
C256        C444   1.438       .  S
C257        H259   1.081       .  S
Cu260       N719   2.071   1_545  S
Cu261       N271   2.074       .  S
Cu262       N720   2.069       .  S
Cu262       N270   2.069       .  S
N263        N264   1.323       .  A
N263        C267   1.347       .  A
N263       Cu716   2.078       .  S
N264        C265   1.345       .  A
N264       Cu718   2.071       .  S
C265        C266   1.378       .  A
C265        H268   1.083       .  S
C266        C267   1.381       .  A
C266        C437   1.438       .  S
C267        H269   1.082       .  S
N270        N271   1.322   1_565  A
N270        C274   1.344       .  A
N271        C272   1.346       .  A
C272        C273   1.382       .  A
C273        C274   1.384   1_545  A
C273        C433   1.475       .  S
C274        H732   1.082       .  S
H276        C730   1.081       .  S
N277        N278   1.324       .  A
N277        C281   1.348       .  A
N277       Cu285   2.080       .  S
N278        C279   1.345       .  A
N278       Cu284   2.078       .  S
C279        C280   1.379       .  A
C279        H282   1.084       .  S
C280        C281   1.381       .  A
C280        C429   1.440       .  S
C281        H283   1.081       .  S
Cu284       N287   2.078       .  S
Cu285       N295   2.079       .  S
Cu286       N288   2.068   1_455  S
Cu286       N294   2.068       .  S
N287        N288   1.322   1_455  A
N287        C291   1.347   1_455  A
N288        C745   1.345       .  A
C289        N744   1.345       .  A
C289        C290   1.378       .  A
C289        H292   1.083       .  S
C290        C747   1.380       .  A
C290        C425   1.436       .  S
C291        C746   1.382       .  A
C291        H293   1.082       .  S
N294        N295   1.322       .  A
N294        C298   1.343       .  A
N295        C296   1.346       .  A
C296        C297   1.383       .  A
C296        H299   1.081       .  S
C297        C298   1.383       .  A
C297        C421   1.475       .  S
C298        H300   1.082       .  S
N301        N302   1.323       .  A
N301        C305   1.346       .  A
N301       Cu309   2.074       .  S
N302        C303   1.346       .  A
N302       Cu764   2.076       .  S
C303        C304   1.380       .  A
C303        H306   1.082       .  S
C304        C305   1.380       .  A
C304        C413   1.438       .  S
C305        H307   1.082       .  S
Cu308       N758   2.069   1_455  S
Cu308       N311   2.070       .  S
Cu309       N775   2.074       .  S
Cu310       N312   2.072       .  S
Cu310       N318   2.072       .  S
N311        N312   1.323       .  A
N311        C315   1.345       .  A
N312        C313   1.345       .  A
C313        C314   1.378       .  A
C313        H316   1.083       .  S
C314        C315   1.379       .  A
C314        C420   1.435       .  S
C315        H317   1.081       .  S
N318        N319   1.322       .  A
N318        C322   1.346       .  A
N319        C320   1.344       .  A
N319       Cu765   2.069       .  S
C320        C321   1.381       .  A
C320        H779   1.081   1_455  S
C321        C322   1.385       .  A
C321        C434   1.474       .  S
C322        H324   1.082       .  S
H323        C776   1.082       .  S
N325        N326   1.322       .  A
N325        C329   1.346       .  A
N325       Cu333   2.073       .  S
N326        C327   1.346   1_455  A
C327        C328   1.380       .  A
C327        H330   1.083       .  S
C328        C329   1.380   1_655  A
C328        C409   1.439       .  S
C329        H331   1.082       .  S
Cu332       N335   2.077       .  S
Cu333       N799   2.073       .  S
Cu334       N336   2.064       .  S
Cu334       N798   2.064       .  S
N335        N336   1.323       .  A
N335        C339   1.346       .  A
N336        C337   1.344       .  A
C337        C338   1.377       .  A
C337        H340   1.081       .  S
C338        C339   1.380       .  A
C338        C405   1.435       .  S
C339        H341   1.083       .  S
N342        C346   1.344       .  A
N342       Cu790   2.073       .  S
N343        C344   1.345       .  A
N343       Cu789   2.072       .  S
C344        C345   1.382       .  A
C344        H347   1.081       .  S
C345        C446   1.474       .  S
C346        H348   1.082       .  S
N349        N350   1.323       .  A
N349        C353   1.345       .  A
N349       Cu357   2.073       .  S
N350        C351   1.346       .  A
N350       Cu356   2.076       .  S
C351        C352   1.380       .  A
C351        H354   1.082       .  S
C352        C353   1.379       .  A
C352        C400   1.438       .  S
C353        H355   1.083       .  S
Cu357       N367   2.073       .  S
Cu358       N360   2.069       .  S
N359        N360   1.323       .  A
N359        C363   1.346       .  A
N360        C361   1.344       .  A
C361        C362   1.378       .  A
C361        H364   1.082       .  S
C362        C363   1.379       .  A
C362        C401   1.435       .  S
C363        H365   1.082       .  S
N366        N367   1.322       .  A
N366        C370   1.345       .  A
N367        C368   1.344       .  A
C368        C369   1.381       .  A
C368        H371   1.082       .  S
C369        C370   1.384       .  A
C369        C422   1.474       .  S
C373        C374   1.409       .  A
C373        C378   1.402       .  A
C373        C404   1.442   1_655  S
C374        C375   1.401       .  A
C374        C412   1.447       .  S
C375        C376   1.402       .  A
C375        H380   1.085       .  S
C376        C377   1.409       .  A
C376        C408   1.443       .  S
C377        C378   1.400       .  A
C377        C397   1.446   1_655  S
C378        H379   1.085   1_655  S
C381        C382   1.410       .  A
C381        C386   1.402       .  A
C381        C441   1.445       .  S
C382        C383   1.402       .  A
C382        C456   1.446       .  S
C383        C384   1.402       .  A
C383        H388   1.085       .  S
C384        C385   1.409       .  A
C384        C449   1.444       .  S
C385        C386   1.401       .  A
C385        C440   1.446       .  S
C386        H387   1.086       .  S
C389        C394   1.402       .  A
C389        C432   1.448       .  S
C390        C391   1.401       .  A
C390        C417   1.442       .  S
C391        C392   1.401       .  A
C391        H396   1.085       .  S
C392        C416   1.446       .  S
C393        C394   1.401       .  A
C393        C428   1.444       .  S
C394        H395   1.085       .  S
C397        C398   1.207       .  T
C398        C399   1.413       .  S
C399        C400   1.207       .  T
C401        C402   1.204       .  T
C402        C403   1.410       .  S
C403        C404   1.204       .  T
C405        C406   1.204       .  T
C406        C407   1.410       .  S
C407        C408   1.204       .  T
C409        C410   1.207       .  T
C410        C411   1.414       .  S
C411        C412   1.207       .  T
C413        C414   1.206       .  T
C414        C415   1.413       .  S
C415        C416   1.207       .  T
C417        C418   1.204       .  T
C418        C419   1.409       .  S
C419        C420   1.204       .  T
C421        C422   1.343       .  D
C421        H423   1.086       .  S
C422        H424   1.086       .  S
C425        C426   1.205       .  T
C426        C427   1.411       .  S
C427        C428   1.205       .  T
C429        C430   1.207       .  T
C430        C431   1.415       .  S
C431        C432   1.208       .  T
C433        C434   1.342   1_545  D
C433        H435   1.086       .  S
C434        H436   1.086       .  S
C437        C438   1.206       .  T
C438        C439   1.413       .  S
C439        C440   1.206       .  T
C441        C442   1.206       .  T
C442        C443   1.413       .  S
C443        C444   1.206       .  T
C445        H447   1.086       .  S
C446        H676   1.086   1_554  S
H448        C674   1.085   1_556  S
C449        C450   1.205       .  T
C450        C451   1.411       .  S
C451        C452   1.205       .  T
C453        C454   1.206       .  T
C454        C455   1.413       .  S
C455        C456   1.206       .  T
N457        N458   1.323       .  A
N457        C461   1.345       .  A
N457       Cu465   2.068       .  S
N458        C459   1.346       .  A
C459        C460   1.380       .  A
C459        H462   1.082       .  S
C460        C461   1.378       .  A
C460        C680   1.436       .  S
C461        H463   1.081       .  S
Cu464       N695   2.072       .  S
Cu465       N475   2.068       .  S
Cu466       N468   2.069       .  S
Cu466       N474   2.069       .  S
N467        N468   1.323       .  A
N467        C471   1.346       .  A
N467       Cu692   2.073       .  S
N468        C469   1.345       .  A
C469        C470   1.378       .  A
C469        H472   1.083       .  S
C470        C471   1.380       .  A
C470        C681   1.436       .  S
C471        H473   1.082       .  S
N474        C478   1.344       .  A
N475        C476   1.344       .  A
C476        C705   1.384       .  A
C476        H479   1.082       .  S
C477        C704   1.384       .  A
C477        C673   1.476       .  S
C478        H480   1.081       .  S
N481        N482   1.324       .  A
N481        C485   1.346       .  A
N481       Cu717   2.076       .  S
N482        C483   1.346       .  A
N482       Cu716   2.078   1_545  S
C483        C484   1.380       .  A
C483        H486   1.082       .  S
C484        C485   1.380       .  A
C484        C672   1.439       .  S
C485        H487   1.082       .  S
Cu488       N710   2.074       .  S
Cu489       N709   2.069       .  S
Cu489       N499   2.068       .  S
Cu490       N498   2.073       .  S
N491        N492   1.323       .  A
N491        C495   1.346       .  A
N492        C493   1.345       .  A
C493        C494   1.379       .  A
C493        H496   1.083       .  S
C494        C495   1.381       .  A
C494        C665   1.438       .  S
C495        H497   1.083       .  S
N498        N499   1.322       .  A
N498        C502   1.345       .  A
N499        C500   1.344       .  A
C500        C501   1.384       .  A
C500        H731   1.083       .  S
C501        C502   1.382       .  A
C501        C661   1.474       .  S
H503        C728   1.082   1_545  S
N505        N506   1.323       .  A
N505        C509   1.344       .  A
N505       Cu513   2.069       .  S
N506        C507   1.345       .  A
N506       Cu512   2.069       .  S
C507        C508   1.378       .  A
C507        H510   1.081       .  S
C508        C509   1.378       .  A
C508        C657   1.433       .  S
C509        H511   1.083       .  S
Cu512       N515   2.069       .  S
Cu513       N523   2.069       .  S
Cu514       N516   2.068       .  S
Cu514       N522   2.068       .  S
N515        N516   1.323       .  A
N515        C519   1.344       .  A
C517        C518   1.379       .  A
C517        H520   1.082       .  S
C518        C653   1.438       .  S
C519        H521   1.083       .  S
N522        N523   1.322       .  A
N522        C526   1.344       .  A
N523        C524   1.345       .  A
C524        C525   1.381       .  A
C524        H527   1.081       .  S
C525        C526   1.384       .  A
C525        C649   1.472       .  S
C526        H528   1.082       .  S
N529        N530   1.323   1_655  A
N529        C533   1.346       .  A
N529       Cu537   2.076   1_655  S
N530        C531   1.346   1_455  A
C531        C532   1.379       .  A
C531        H534   1.082       .  S
C532        C533   1.380       .  A
C532        C641   1.438       .  S
C533        H535   1.082       .  S
Cu536       N539   2.081       .  S
Cu538       N540   2.076       .  S
Cu538       N546   2.075       .  S
N539        N540   1.324       .  A
N539        C543   1.346       .  A
N540        C541   1.346       .  A
C541        C542   1.379       .  A
C541        H544   1.081       .  S
C542        C543   1.380       .  A
C542        C648   1.439       .  S
C543        H545   1.083       .  S
N546        N547   1.322       .  A
N546        C550   1.346       .  A
N547        C548   1.344       .  A
C548        C549   1.383       .  A
C549        C550   1.383       .  A
C549        C662   1.475       .  S
C550        H552   1.080       .  S
N553        N554   1.324       .  A
N553        C557   1.346       .  A
N553       Cu561   2.074       .  S
N554        C555   1.345       .  A
N554       Cu788   2.077       .  S
C555        C556   1.379       .  A
C555        H558   1.083       .  S
C556        C557   1.379       .  A
C556        C637   1.437       .  S
C557        H559   1.082       .  S
Cu560       N782   2.076       .  S
Cu560       N563   2.076   1_565  S
Cu562       N564   2.069       .  S
N563        N564   1.323       .  A
N563        C567   1.347       .  A
N564        C565   1.344       .  A
C565        C566   1.378       .  A
C565        H568   1.082       .  S
C566        C567   1.381       .  A
C566        C633   1.437       .  S
C567        H569   1.082       .  S
N570        N799   1.322   1_545  A
N570        C574   1.347       .  A
N571        N798   1.321       .  A
N571        C572   1.346       .  A
C572        C573   1.383       .  A
C572        H575   1.081       .  S
C573        C802   1.383       .  A
C573        C674   1.475       .  S
C574        C801   1.386       .  A
C574        H576   1.081       .  S
N577        N578   1.323       .  A
N577        C581   1.344       .  A
N577       Cu585   2.068       .  S
N578        C579   1.347       .  A
N578       Cu584   2.080   1_545  S
C579        C580   1.381       .  A
C579        H582   1.082       .  S
C580        C581   1.378       .  A
C580        C628   1.437       .  S
C581        H583   1.083       .  S
Cu584       N815   2.080       .  S
Cu585       N595   2.068   1_545  S
Cu586       N588   2.075       .  S
Cu586       N822   2.075       .  S
N587        N588   1.323       .  A
N587        C591   1.345       .  A
N587       Cu812   2.072       .  S
N588        C589   1.346       .  A
C589        C590   1.380       .  A
C589        H592   1.082       .  S
C590        C591   1.379       .  A
C590        C629   1.438       .  S
C591        H593   1.082       .  S
N594        N595   1.322       .  A
N594        C598   1.344       .  A
N594       Cu814   2.073       .  S
N595        C596   1.345   1_565  A
C596        C597   1.381   1_545  A
C596        H599   1.080       .  S
C597        C598   1.384       .  A
C597        C650   1.473       .  S
C598        H828   1.083       .  S
H600        C826   1.082       .  S
C601        C602   1.410       .  A
C601        C606   1.402       .  A
C601        C632   1.445       .  S
C602        C603   1.401       .  A
C602        C640   1.445       .  S
C603        C604   1.401       .  A
C603        H608   1.085       .  S
C604        C605   1.408       .  A
C604        C636   1.445       .  S
C605        C606   1.402       .  A
C605        C625   1.445       .  S
C606        H607   1.085       .  S
C609        C610   1.409       .  A
C609        C614   1.402       .  A
C609        C669   1.446       .  S
C610        C611   1.401       .  A
C610        C684   1.444       .  S
C611        C612   1.401       .  A
C611        H616   1.085       .  S
C612        C613   1.409       .  A
C612        C677   1.444       .  S
C613        C614   1.402       .  A
C613        C668   1.445       .  S
C614        H615   1.086       .  S
C617        C846   1.409       .  A
C617        C622   1.401       .  A
C617        C660   1.441       .  S
C618        C845   1.410       .  A
C618        C619   1.401       .  A
C618        C645   1.446       .  S
C619        C620   1.401       .  A
C619        H624   1.085       .  S
C620        C849   1.409       .  A
C620        C644   1.445       .  S
C621        C848   1.409       .  A
C621        C622   1.400       .  A
C621        C656   1.446       .  S
C622        H623   1.085       .  S
C625        C626   1.206       .  T
C626        C627   1.412       .  S
C627        C628   1.205       .  T
C629        C630   1.206       .  T
C630        C631   1.412       .  S
C631        C632   1.206       .  T
C633        C634   1.205       .  T
C634        C635   1.411       .  S
C635        C636   1.206       .  T
C637        C638   1.206       .  T
C638        C639   1.412       .  S
C639        C640   1.206       .  T
C641        C642   1.206       .  T
C642        C643   1.412       .  S
C643        C644   1.206       .  T
C645        C646   1.207       .  T
C646        C647   1.413       .  S
C647        C648   1.207       .  T
C649        C650   1.342       .  D
C649        H651   1.086       .  S
C650        H652   1.085       .  S
C653        C654   1.206       .  T
C654        C655   1.413       .  S
C655        C656   1.206       .  T
C657        C658   1.203       .  T
C658        C659   1.408       .  S
C659        C660   1.203       .  T
C661        C662   1.343       .  D
C661        H663   1.086       .  S
C662        H664   1.086       .  S
C665        C666   1.206       .  T
C666        C667   1.412       .  S
C667        C668   1.206       .  T
C669        C670   1.207       .  T
C670        C671   1.413       .  S
C671        C672   1.207       .  T
C673        C902   1.342   1_556  D
C673        H675   1.086       .  S
C674        C901   1.343   1_554  D
C677        C678   1.205       .  T
C678        C679   1.411       .  S
C679        C680   1.205       .  T
C681        C682   1.205       .  T
C682        C683   1.411       .  S
C683        C684   1.205       .  T
N685        N686   1.323       .  A
N685        C689   1.344   1_455  A
N685       Cu693   2.067       .  S
N686        C687   1.346   1_455  A
C687        C688   1.380       .  A
C687        H690   1.082   1_655  S
C688        C689   1.378       .  A
C688        C908   1.434       .  S
C689        H691   1.082       .  S
Cu693       N703   2.067   1_565  S
Cu694       N696   2.074       .  S
Cu694       N702   2.073       .  S
N695        N696   1.323       .  A
N695        C699   1.345       .  A
N696        C697   1.345       .  A
C697        C698   1.379       .  A
C697        H700   1.083       .  S
C698        C699   1.379       .  A
C698        C909   1.436       .  S
C699        H701   1.083       .  S
N702        C706   1.345       .  A
N703        C704   1.343       .  A
C704        H707   1.082   1_545  S
C705        C901   1.473       .  S
C706        H708   1.082       .  S
N709        N710   1.323       .  A
N709        C713   1.345       .  A
N710        C711   1.346       .  A
C711        C712   1.380       .  A
C711        H714   1.082       .  S
C712        C713   1.378       .  A
C712        C900   1.436       .  S
C713        H715   1.082       .  S
Cu717       N727   2.075   1_545  S
Cu718       N726   2.071       .  S
N719        N720   1.322       .  A
N719        C723   1.346       .  A
N720        C721   1.344   1_455  A
C721        C722   1.378       .  A
C721        H724   1.084       .  S
C722        C723   1.380   1_655  A
C722        C893   1.436       .  S
C723        H725   1.082       .  S
N726        N727   1.322       .  A
N726        C730   1.345       .  A
N727        C728   1.345       .  A
C728        C729   1.385       .  A
C729        C730   1.381       .  A
C729        C889   1.475       .  S
N733        N734   1.324       .  A
N733        C737   1.345       .  A
N733       Cu741   2.077       .  S
N734        C735   1.346       .  A
N734       Cu740   2.076       .  S
C735        C736   1.380       .  A
C735        H738   1.082       .  S
C736        C737   1.379       .  A
C736        C885   1.438       .  S
C737        H739   1.083       .  S
Cu740       N743   2.076       .  S
Cu741       N751   2.076       .  S
Cu742       N744   2.070       .  S
Cu742       N750   2.070       .  S
N743        N744   1.323       .  A
N743        C747   1.346       .  A
C745        C746   1.379       .  A
C745        H748   1.081       .  S
C746        C881   1.439       .  S
C747        H749   1.082       .  S
N750        N751   1.322       .  A
N750        C754   1.345       .  A
N751        C752   1.346       .  A
C752        C753   1.386       .  A
C752        H755   1.082       .  S
C753        C754   1.381       .  A
C753        C877   1.477       .  S
C754        H756   1.081       .  S
N757        N758   1.323       .  A
N757        C761   1.344       .  A
N757       Cu765   2.069   1_655  S
N758        C759   1.345       .  A
C759        C760   1.379       .  A
C759        H762   1.082       .  S
C760        C761   1.378       .  A
C760        C869   1.434       .  S
C761        H763   1.083       .  S
Cu764       N767   2.076       .  S
Cu766       N768   2.074       .  S
Cu766       N774   2.074       .  S
N767        N768   1.323       .  A
N767        C771   1.346       .  A
N768        C769   1.346       .  A
C769        C770   1.379       .  A
C769        H772   1.083       .  S
C770        C771   1.380       .  A
C770        C876   1.438       .  S
C771        H773   1.082       .  S
N774        N775   1.322       .  A
N774        C778   1.345       .  A
N775        C776   1.345       .  A
C776        C777   1.385       .  A
C777        C778   1.382       .  A
C777        C890   1.475       .  S
C778        H780   1.081       .  S
N781        N782   1.324       .  A
N781        C785   1.345       .  A
N781       Cu789   2.072       .  S
N782        C783   1.345       .  A
C783        C784   1.379       .  A
C783        H786   1.083       .  S
C784        C785   1.379       .  A
C784        C865   1.436       .  S
C785        H787   1.082       .  S
Cu788       N791   2.077       .  S
Cu790       N792   2.074       .  S
N791        N792   1.323       .  A
N791        C795   1.346       .  A
N792        C793   1.346       .  A
C793        C794   1.380       .  A
C793        H796   1.081       .  S
C794        C795   1.381       .  A
C794        C861   1.439       .  S
C795        H797   1.082       .  S
N798        C802   1.343       .  A
N799        C800   1.343       .  A
C800        C801   1.380   1_565  A
C800        H803   1.082       .  S
C801        C902   1.474       .  S
C802        H804   1.082       .  S
N805        N806   1.323       .  A
N805        C809   1.345       .  A
N805       Cu813   2.074       .  S
N806        C807   1.345       .  A
N806       Cu812   2.072       .  S
C807        C808   1.379       .  A
C807        H810   1.082       .  S
C808        C809   1.379       .  A
C808        C856   1.436       .  S
C809        H811   1.083       .  S
Cu813       N823   2.074       .  S
Cu814       N816   2.074       .  S
N815        N816   1.323       .  A
N815        C819   1.346       .  A
N816        C817   1.346       .  A
C817        C818   1.380       .  A
C817        H820   1.081       .  S
C818        C819   1.381       .  A
C818        C857   1.440       .  S
C819        H821   1.083       .  S
N822        N823   1.322       .  A
N822        C826   1.345       .  A
N823        C824   1.346       .  A
C824        C825   1.386       .  A
C824        H827   1.082       .  S
C825        C826   1.382       .  A
C825        C878   1.477       .  S
C829        C830   1.410       .  A
C829        C834   1.401       .  A
C829        C860   1.448       .  S
C830        C831   1.403       .  A
C830        C868   1.444       .  S
C831        C832   1.401       .  A
C831        H836   1.085       .  S
C832        C833   1.409       .  A
C832        C864   1.447       .  S
C833        C834   1.402       .  A
C833        C853   1.443       .  S
C834        H835   1.086       .  S
C837        C838   1.409       .  A
C837        C842   1.401       .  A
C837        C897   1.443       .  S
C838        C839   1.400       .  A
C838        C912   1.444       .  S
C839        C840   1.400       .  A
C839        H844   1.085       .  S
C840        C841   1.408       .  A
C840        C905   1.442       .  S
C841        C842   1.400       .  A
C841        C896   1.444       .  S
C842        H843   1.085       .  S
C845        C850   1.403       .  A
C845        C888   1.445       .  S
C846        C847   1.400       .  A
C846        C873   1.446       .  S
C847        C848   1.401       .  A
C847        H852   1.085       .  S
C848        C872   1.441       .  S
C849        C850   1.403       .  A
C849        C884   1.447       .  S
C850        H851   1.085       .  S
C853        C854   1.205       .  T
C854        C855   1.410       .  S
C855        C856   1.205       .  T
C857        C858   1.207       .  T
C858        C859   1.415       .  S
C859        C860   1.207       .  T
C861        C862   1.207       .  T
C862        C863   1.414       .  S
C863        C864   1.207       .  T
C865        C866   1.205       .  T
C866        C867   1.411       .  S
C867        C868   1.205       .  T
C869        C870   1.204       .  T
C870        C871   1.408       .  S
C871        C872   1.204       .  T
C873        C874   1.206       .  T
C874        C875   1.413       .  S
C875        C876   1.206       .  T
C877        C878   1.343       .  D
C877        H879   1.085       .  S
C878        H880   1.086       .  S
C881        C882   1.207       .  T
C882        C883   1.414       .  S
C883        C884   1.207       .  T
C885        C886   1.206       .  T
C886        C887   1.413       .  S
C887        C888   1.206       .  T
C889        C890   1.343       .  D
C889        H891   1.085       .  S
C890        H892   1.086       .  S
C893        C894   1.205       .  T
C894        C895   1.411       .  S
C895        C896   1.205       .  T
C897        C898   1.205       .  T
C898        C899   1.410       .  S
C899        C900   1.205       .  T
C901        H903   1.086   1_655  S
C905        C906   1.204       .  T
C906        C907   1.409       .  S
C907        C908   1.204       .  T
C909        C910   1.205       .  T
C910        C911   1.411       .  S
C911        C912   1.205       .  T
