geometry optimzed in LAMMPS
_audit_creation_date              2020-12-01 
_audit_creation_method            'lammps2cif' 
_symmetry_space_group_name_H-M    'P1' 
_symmetry_Int_Tables_number       1 
_symmetry_cell_setting            triclinic 
loop_ 
_symmetry_equiv_pos_as_xyz 
  x,y,z 
_cell_length_a                    39.57698982 
_cell_length_b                    40.194190736428624 
_cell_length_c                    40.056095697408395 
_cell_angle_alpha                 90.0287280698036 
_cell_angle_beta                  89.97854651750912 
_cell_angle_gamma                 89.96663167264626 
loop_ 
_atom_site_label 
_atom_site_type_symbol 
_atom_site_fract_x 
_atom_site_fract_y 
_atom_site_fract_z 
_atom_site_charge 
C1          C  0.24968478  0.22550799  0.27840259     0.03500
C2          C  0.27326533  0.22591312  0.25224238    -0.12700
C3          C  0.27235509  0.25132087  0.22815935     0.01000
C4          C  0.24722220  0.27589693  0.23005066    -0.11200
C5          C  0.22380081  0.27588024  0.25641603     0.03500
C6          C  0.22502277  0.25044388  0.28030411    -0.10600
H7          H  0.29241054  0.20668613  0.25076839     0.09100
H8          H  0.24615392  0.29524382  0.21122495     0.06600
H9          H  0.20688470  0.25015617  0.30059460     0.06500
O10         O  0.03677640  0.54022334  0.28664828    -0.72600
O11         O  0.96450949  0.46943755  0.28196875    -0.73600
O12         O  0.03596123  0.46890092  0.28683005    -0.62200
O13         O  0.96522798  0.54041953  0.28233978    -0.70600
O14         O  0.96817968  0.53980835  0.22699887    -0.70100
O15         O  0.03959339  0.46935939  0.23164280    -0.61400
O16         O  0.96880597  0.46946959  0.22694804    -0.73900
O17         O  0.03987705  0.54002753  0.23138110    -0.72700
Cu18       Cu  0.00053507  0.50480185  0.28643218     1.04600
Cu19       Cu  0.00428968  0.50474913  0.22739398     1.04300
C20         C  0.04949953  0.55150073  0.25956063     0.93600
C21         C  0.95539082  0.45804619  0.25350278     0.92800
C22         C  0.04828498  0.45715706  0.25977832     0.84900
C23         C  0.95526878  0.55106699  0.25396060     0.91200
C24         C  0.77431987  0.72724179  0.24987208     0.03500
C25         C  0.74954709  0.72619835  0.22487438    -0.12700
C26         C  0.72393310  0.75031994  0.22351578     0.01000
C27         C  0.72299969  0.77552633  0.24786611    -0.11200
C28         C  0.74791910  0.77704714  0.27271584     0.03500
C29         C  0.77367441  0.75310128  0.27341372    -0.10600
H30         H  0.75021691  0.70650539  0.20637087     0.09100
H31         H  0.70285183  0.79378673  0.24764881     0.06600
H32         H  0.79326277  0.75470203  0.29224111     0.06500
O33         O  0.26589611  0.03788648  0.46870351    -0.72600
O34         O  0.26438245  0.96787608  0.54014108    -0.73600
O35         O  0.26731941  0.96717620  0.46884687    -0.62200
O36         O  0.26304247  0.03818944  0.53960186    -0.70600
O37         O  0.20712338  0.03709094  0.53741158    -0.70100
O38         O  0.21142302  0.96599060  0.46647028    -0.61400
O39         O  0.20840700  0.96625349  0.53753939    -0.73900
O40         O  0.21003706  0.03694010  0.46639045    -0.72700
Cu41       Cu  0.26708008  0.00278533  0.50436183     1.04600
Cu42       Cu  0.20729537  0.00152603  0.50185729     1.04300
C43         C  0.23822631  0.04875560  0.45635580     0.93600
C44         C  0.23617216  0.95632670  0.55042969     0.92800
C45         C  0.24010437  0.95523189  0.45648503     0.84900
C46         C  0.23439602  0.04891688  0.54970350     0.91200
O47         O  0.73220425  0.03861568  0.53032720    -0.72600
O48         O  0.73112092  0.96736111  0.46038633    -0.73600
O49         O  0.73145961  0.96825893  0.53138096    -0.62200
O50         O  0.73242948  0.03784998  0.45958412    -0.70600
O51         O  0.78829917  0.03679319  0.45966232    -0.70100
O52         O  0.78748122  0.96726536  0.53116509    -0.61400
O53         O  0.78708262  0.96617791  0.46026961    -0.73900
O54         O  0.78811683  0.03796849  0.53065608    -0.72700
Cu55       Cu  0.72988037  0.00302526  0.49541027     1.04600
Cu56       Cu  0.78970181  0.00202376  0.49542555     1.04300
C57         C  0.76020339  0.04971336  0.54161688     0.93600
C58         C  0.75882769  0.95537943  0.44924426     0.92800
C59         C  0.75933578  0.95698765  0.54283536     0.84900
C60         C  0.76064237  0.04852193  0.44830559     0.91200
C61         C  0.21969961  0.72803487  0.75308987     0.03500
C62         C  0.21731865  0.75338169  0.72914804    -0.12700
C63         C  0.24158011  0.77880631  0.72787518     0.01000
C64         C  0.26885592  0.77822036  0.75029748    -0.11200
C65         C  0.27152494  0.75294456  0.77434340     0.03500
C66         C  0.24693967  0.72781716  0.77548384    -0.10600
H67         H  0.19664266  0.75322560  0.71140795     0.09100
H68         H  0.28804077  0.79741205  0.74899814     0.06600
H69         H  0.24905209  0.70802283  0.79373967     0.06500
O70         O  0.96228175  0.53458495  0.72196172    -0.72600
O71         O  0.03469744  0.46510731  0.72184497    -0.73600
O72         O  0.96258478  0.46399681  0.72138150    -0.62200
O73         O  0.03351970  0.53578067  0.72269853    -0.70600
O74         O  0.03378848  0.53449025  0.77808676    -0.70100
O75         O  0.96192448  0.46432698  0.77650527    -0.61400
O76         O  0.03377951  0.46415095  0.77698557    -0.73900
O77         O  0.96217753  0.53477600  0.77714804    -0.72700
Cu78       Cu  0.99829526  0.49980504  0.72004210     1.04600
Cu79       Cu  0.99788721  0.49934363  0.77907698     1.04300
C80         C  0.95100057  0.54612872  0.74951974     0.93600
C81         C  0.04602941  0.45368132  0.74936184     0.92800
C82         C  0.95062081  0.45300324  0.74893485     0.84900
C83         C  0.04459283  0.54660640  0.75063580     0.91200
C84         C  0.76958708  0.27615566  0.74533350     0.03500
C85         C  0.74601989  0.27373947  0.77142661    -0.12700
C86         C  0.72317337  0.24699038  0.77278331     0.01000
C87         C  0.72365407  0.22296044  0.74727060    -0.11200
C88         C  0.74689796  0.22540959  0.72090494     0.03500
C89         C  0.76997302  0.25182416  0.72026817    -0.10600
H90         H  0.74569187  0.29252020  0.79085437     0.09100
H91         H  0.70607820  0.20230262  0.74799160     0.06600
H92         H  0.78837371  0.25336358  0.70027105     0.06500
O93         O  0.53627341  0.71230947  0.95800152    -0.72600
O94         O  0.46677672  0.71247209  0.03210893    -0.73600
O95         O  0.46451479  0.71329560  0.96051392    -0.62200
O96         O  0.53867294  0.71119296  0.02902643    -0.70600
O97         O  0.53830426  0.76640947  0.03058628    -0.70100
O98         O  0.46626352  0.76841210  0.96028369    -0.61400
O99         O  0.46711477  0.76754922  0.03173503    -0.73900
O100        O  0.53775181  0.76728089  0.95952830    -0.72700
Cu101      Cu  0.50147195  0.71037176  0.99486096     1.04600
Cu102      Cu  0.50234354  0.76928489  0.99552200     1.04300
C103        C  0.54822515  0.73980171  0.94716790     0.93600
C104        C  0.45650175  0.74020714  0.04416033     0.92800
C105        C  0.45404748  0.74115461  0.94915780     0.84900
C106        C  0.54984819  0.73856708  0.04086772     0.91200
O107        O  0.46198281  0.27374192  0.03599581    -0.72600
O108        O  0.53459162  0.27345262  0.96595710    -0.73600
O109        O  0.46280149  0.27143242  0.96544628    -0.62200
O110        O  0.53397413  0.27560905  0.03661612    -0.70600
O111        O  0.53507971  0.22058689  0.03867185    -0.70100
O112        O  0.46532404  0.21626902  0.96609811    -0.61400
O113        O  0.53702945  0.21857106  0.96802081    -0.73900
O114        O  0.46296670  0.21879271  0.03719195    -0.72700
Cu115      Cu  0.49827339  0.27544297  0.00098041     1.04600
Cu116      Cu  0.50011407  0.21663096  0.00261521     1.04300
C117        C  0.45051786  0.24630765  0.04747923     0.93600
C118        C  0.54763148  0.24614068  0.95598757     0.92800
C119        C  0.45290879  0.24321996  0.95450082     0.84900
C120        C  0.54624290  0.24874432  0.04855972     0.91200
C121        C  0.74838396  0.77488466  0.71395183     0.03500
C122        C  0.72343455  0.77502682  0.73884290    -0.12700
C123        C  0.72267541  0.74977276  0.76306602     0.01000
C124        C  0.74794582  0.72526972  0.76293711    -0.11200
C125        C  0.77327817  0.72523433  0.73838468     0.03500
C126        C  0.77273068  0.74961990  0.71338992    -0.10600
H127        H  0.70477201  0.79478184  0.73941798     0.09100
H128        H  0.74796201  0.70626282  0.78212542     0.06600
H129        H  0.79159263  0.74934689  0.69378581     0.06500
C130        C  0.78146101  0.27484777  0.24588153     0.03500
C131        C  0.78102789  0.25037517  0.27087347    -0.12700
C132        C  0.75620465  0.22553871  0.27080687     0.01000
C133        C  0.73082041  0.22598565  0.24646488    -0.11200
C134        C  0.73038923  0.25085270  0.22197163     0.03500
C135        C  0.75594045  0.27501559  0.22151596    -0.10600
H136        H  0.80017879  0.25044940  0.29020572     0.09100
H137        H  0.71141306  0.20697244  0.24657295     0.06600
H138        H  0.75584930  0.29402496  0.20231132     0.06500
C139        C  0.24251585  0.22355108  0.72996797     0.03500
C140        C  0.22047797  0.25076404  0.73129473    -0.12700
C141        C  0.22564651  0.27633257  0.75448763     0.01000
C142        C  0.25322016  0.27472843  0.77643684    -0.11200
C143        C  0.27564329  0.24760474  0.77521362     0.03500
C144        C  0.26999500  0.22198367  0.75203824    -0.10600
H145        H  0.19924918  0.25205388  0.71423613     0.09100
H146        H  0.25683759  0.29421380  0.79480051     0.06600
H147        H  0.28726887  0.20107600  0.75083172     0.06500
C148        C  0.28276967  0.74922804  0.23002582     0.03500
C149        C  0.25742336  0.72478069  0.23151874    -0.12700
C150        C  0.23294801  0.72549370  0.25683076     0.01000
C151        C  0.23368840  0.75088849  0.28081002    -0.11200
C152        C  0.25855416  0.77578093  0.27960197     0.03500
C153        C  0.28340658  0.77451919  0.25440307    -0.10600
H154        H  0.25684704  0.70505012  0.21306513     0.09100
H155        H  0.21447502  0.75160859  0.30009447     0.06600
H156        H  0.30292721  0.79338811  0.25352370     0.06500
C157        C  0.42721522  0.24180848  0.92795402    -0.11600
C158        C  0.39713840  0.26047988  0.93005532     0.03900
C159        C  0.37391439  0.25962180  0.90378471    -0.12100
C160        C  0.38010314  0.24028400  0.87530934     0.18700
C161        C  0.40994288  0.22133179  0.87328331    -0.09200
C162        C  0.43313260  0.22198972  0.89966580    -0.02100
H163        H  0.35078720  0.27395707  0.90562940     0.05300
C164        C  0.35498539  0.24052733  0.84809020     0.20700
H165        H  0.45622018  0.20760945  0.89775099     0.10400
C166        C  0.35412083  0.26760504  0.82607755    -0.15500
C167        C  0.32903221  0.26995270  0.80158425     0.03400
C168        C  0.30397694  0.24510899  0.79922022    -0.10800
C169        C  0.30552597  0.21752873  0.82069360    -0.00900
C170        C  0.33074181  0.21513336  0.84504114    -0.06000
H171        H  0.37294328  0.28704862  0.82810310     0.06400
H172        H  0.28655116  0.19819114  0.81904073     0.09800
Br173      Br  0.42034621  0.19505489  0.83464054    -0.05700
Br174      Br  0.38565071  0.28593741  0.96901753    -0.02700
Br175      Br  0.33102839  0.30677373  0.77120294     0.00200
Br176      Br  0.33043360  0.17745201  0.87440209    -0.04200
C177        C  0.70351481  0.25110560  0.19647157    -0.11600
C178        C  0.66941246  0.25619571  0.20521954     0.03900
C179        C  0.64445962  0.25528394  0.18055719    -0.12100
C180        C  0.65296962  0.24929497  0.14711814     0.18700
C181        C  0.68705856  0.24444388  0.13830311    -0.09200
C182        C  0.71206653  0.24548289  0.16294861    -0.02100
H183        H  0.61831684  0.25942074  0.18742114     0.05300
C184        C  0.62590910  0.24881921  0.12179046     0.20700
H185        H  0.73819993  0.24136826  0.15604890     0.10400
C186        C  0.62248223  0.27585748  0.10002843    -0.15500
C187        C  0.59673634  0.27661507  0.07610939     0.03400
C188        C  0.57358586  0.24984118  0.07386681    -0.10800
C189        C  0.57737482  0.22269899  0.09573064    -0.00900
C190        C  0.60317428  0.22207218  0.11954861    -0.06000
H191        H  0.64009181  0.29643062  0.10159037     0.06400
H192        H  0.56013738  0.20181918  0.09439619     0.09800
Br193      Br  0.70040005  0.23523442  0.09319289    -0.05700
Br194      Br  0.65584266  0.26581503  0.25020292    -0.02700
Br195      Br  0.59629860  0.31407815  0.04633620     0.00200
Br196      Br  0.60700889  0.18381367  0.14793411    -0.04200
C197        C  0.69641983  0.74936115  0.78943677    -0.11600
C198        C  0.66171904  0.74684555  0.78176357     0.03900
C199        C  0.63784137  0.74555346  0.80756640    -0.12100
C200        C  0.64800258  0.74651326  0.84110301     0.18700
C201        C  0.68261074  0.74886088  0.84877135    -0.09200
C202        C  0.70647391  0.75024138  0.82304598    -0.02100
H203        H  0.61125795  0.74338048  0.80148872     0.05300
C204        C  0.62223319  0.74471990  0.86781046     0.20700
H205        H  0.73304778  0.75208647  0.82929035     0.10400
C206        C  0.61732469  0.71473855  0.88494459    -0.15500
C207        C  0.59350307  0.71224818  0.91073818     0.03400
C208        C  0.57390899  0.74039332  0.91987689    -0.10800
C209        C  0.57911457  0.77039706  0.90240060    -0.00900
C210        C  0.60287268  0.77266217  0.87662265    -0.06000
H211        H  0.63233912  0.69316957  0.87831580     0.06400
H212        H  0.56454253  0.79234749  0.90866275     0.09800
Br213      Br  0.69832101  0.75074262  0.89402271    -0.05700
Br214      Br  0.64580710  0.74289255  0.73667399    -0.02700
Br215      Br  0.59051424  0.66992407  0.93278185     0.00200
Br216      Br  0.60866454  0.81463046  0.85455156    -0.04200
C217        C  0.43228441  0.74067254  0.07269827    -0.11600
C218        C  0.43191477  0.76673078  0.09653557     0.03900
C219        C  0.40807713  0.76664634  0.12243475    -0.12100
C220        C  0.38462386  0.74072786  0.12577603     0.18700
C221        C  0.38557286  0.71421336  0.10273769    -0.09200
C222        C  0.40921252  0.71432824  0.07658899    -0.02100
H223        H  0.40785725  0.78699207  0.14019198     0.05300
C224        C  0.35883244  0.74242653  0.15282290     0.20700
H225        H  0.40929584  0.69383350  0.05901614     0.10400
C226        C  0.32472916  0.74704959  0.14436374    -0.15500
C227        C  0.29978906  0.74973462  0.16909297     0.03400
C228        C  0.30872407  0.74791297  0.20316004    -0.10800
C229        C  0.34290025  0.74372175  0.21164990    -0.00900
C230        C  0.36783270  0.74087024  0.18686910    -0.06000
H231        H  0.31752384  0.74890966  0.11834130     0.06400
H232        H  0.35013765  0.74203072  0.23767396     0.09800
Br233      Br  0.35572272  0.67682835  0.10658802    -0.05700
Br234      Br  0.46448830  0.80216055  0.09676479    -0.02700
Br235      Br  0.25410813  0.75748106  0.15502069     0.00200
Br236      Br  0.41363418  0.73351634  0.20069188    -0.04200
C237        C  0.69822691  0.24460659  0.80035915    -0.11600
C238        C  0.70824562  0.24442484  0.83420195     0.03900
C239        C  0.68379814  0.24377385  0.85947425    -0.12100
C240        C  0.64931185  0.24275081  0.85164978     0.18700
C241        C  0.63925215  0.24203836  0.81796390    -0.09200
C242        C  0.66363305  0.24295575  0.79264689    -0.02100
H243        H  0.69170274  0.24389013  0.88536777     0.05300
C244        C  0.62415176  0.24326027  0.87893529     0.20700
H245        H  0.65553019  0.24296972  0.76681439     0.10400
C246        C  0.61537321  0.27370937  0.89350017    -0.15500
C247        C  0.59116435  0.27545769  0.91895945     0.03400
C248        C  0.57474811  0.24605847  0.93007464    -0.10800
C249        C  0.58444851  0.21546414  0.91572830    -0.00900
C250        C  0.60897073  0.21391365  0.89059220    -0.06000
H251        H  0.62750179  0.29632973  0.88494906     0.06400
H252        H  0.57280982  0.19247842  0.92388916     0.09800
Br253      Br  0.59247403  0.24051870  0.80552520    -0.05700
Br254      Br  0.75486641  0.24318798  0.84734440    -0.02700
Br255      Br  0.58323291  0.31886501  0.93756582     0.00200
Br256      Br  0.62133642  0.17118328  0.87308118    -0.04200
C257        C  0.20124266  0.30400032  0.75621192    -0.11600
C258        C  0.20955055  0.33616844  0.74497919     0.03900
C259        C  0.18489292  0.36114996  0.74487214    -0.12100
C260        C  0.15192385  0.35443805  0.75581286     0.18700
C261        C  0.14361778  0.32223237  0.76689223    -0.09200
C262        C  0.16826590  0.29735132  0.76712267    -0.02100
H263        H  0.19128651  0.38574636  0.73580987     0.05300
C264        C  0.12604766  0.38081727  0.75413905     0.20700
H265        H  0.16155079  0.27251803  0.77527955     0.10400
C266        C  0.11278722  0.38983912  0.72304998    -0.15500
C267        C  0.08688015  0.41343035  0.72049564     0.03400
C268        C  0.07373087  0.42858353  0.74979263    -0.10800
C269        C  0.08785287  0.41973129  0.78084312    -0.00900
C270        C  0.11377858  0.39627363  0.78314342    -0.06000
H271        H  0.12233038  0.37799832  0.70063019     0.06400
H272        H  0.07883632  0.43114553  0.80366991     0.09800
Br273      Br  0.09854748  0.31068727  0.78025011    -0.05700
Br274      Br  0.25344526  0.34646809  0.72755872    -0.02700
Br275      Br  0.07092066  0.42258633  0.67611094     0.00200
Br276      Br  0.13203948  0.38643380  0.82640354    -0.04200
C277        C  0.92487072  0.57268074  0.74880278    -0.11600
C278        C  0.91525907  0.59126241  0.77740791     0.03900
C279        C  0.89061871  0.61608305  0.77460553    -0.12100
C280        C  0.87525158  0.62289858  0.74391556     0.18700
C281        C  0.88484258  0.60489807  0.71545551    -0.09200
C282        C  0.90933412  0.58006639  0.71803253    -0.02100
H283        H  0.88332645  0.63018230  0.79652501     0.05300
C284        C  0.84912098  0.64886568  0.74205053     0.20700
H285        H  0.91614198  0.56646233  0.69567355     0.10400
C286        C  0.85891295  0.68223367  0.73961586    -0.15500
C287        C  0.83470514  0.70753421  0.73810396     0.03400
C288        C  0.79995492  0.69939017  0.73888780    -0.10800
C289        C  0.79036758  0.66582102  0.74132798    -0.00900
C290        C  0.81464040  0.64065295  0.74299856    -0.06000
H291        H  0.88549332  0.68859194  0.73921700     0.06400
H292        H  0.76387237  0.65915890  0.74199646     0.09800
Br293      Br  0.86532070  0.61369063  0.67251204    -0.05700
Br294      Br  0.93478581  0.58534751  0.82093381    -0.02700
Br295      Br  0.85087266  0.75258655  0.73729988     0.00200
Br296      Br  0.79972584  0.59543858  0.74717901    -0.04200
C297        C  0.92333115  0.42737106  0.74865568    -0.11600
C298        C  0.91129226  0.41162619  0.77810879     0.03900
C299        C  0.88571342  0.38769647  0.77605091    -0.12100
C300        C  0.87147047  0.37892917  0.74534906     0.18700
C301        C  0.88283573  0.39461398  0.71611851    -0.09200
C302        C  0.90853954  0.41847085  0.71788933    -0.02100
H303        H  0.87696584  0.37557906  0.79862439     0.05300
C304        C  0.84545080  0.35261601  0.74442378     0.20700
H305        H  0.91691385  0.43008870  0.69494457     0.10400
C306        C  0.81118282  0.36138886  0.74281625    -0.15500
C307        C  0.78603113  0.33687160  0.74304852     0.03400
C308        C  0.79515003  0.30300212  0.74500066    -0.10800
C309        C  0.82949725  0.29434352  0.74622957    -0.00900
C310        C  0.85455993  0.31882666  0.74605679    -0.06000
H311        H  0.80403130  0.38736576  0.74138152     0.06400
H312        H  0.83682259  0.26840391  0.74758798     0.09800
Br313      Br  0.86435344  0.38364911  0.67323983    -0.05700
Br314      Br  0.92827076  0.42041590  0.82220223    -0.02700
Br315      Br  0.73981918  0.35076540  0.73906156     0.00200
Br316      Br  0.90095573  0.30508152  0.74776890    -0.04200
C317        C  0.30037339  0.75215193  0.79786130    -0.11600
C318        C  0.30625602  0.77818666  0.82073340     0.03900
C319        C  0.33301170  0.77587374  0.84343627    -0.12100
C320        C  0.35440439  0.74801539  0.84368302     0.18700
C321        C  0.34887383  0.72223412  0.82047500    -0.09200
C322        C  0.32193336  0.72438878  0.79794452    -0.02100
H323        H  0.33674406  0.79560948  0.86148939     0.05300
C324        C  0.38095281  0.74556743  0.86964602     0.20700
H325        H  0.31782450  0.70434717  0.78031789     0.10400
C326        C  0.37821126  0.72096653  0.89433807    -0.15500
C327        C  0.40169022  0.71891890  0.92038625     0.03400
C328        C  0.42843068  0.74209781  0.92224279    -0.10800
C329        C  0.43108208  0.76673265  0.89747372    -0.00900
C330        C  0.40780813  0.76847042  0.87124108    -0.06000
H331        H  0.35730511  0.70358644  0.89363334     0.06400
H332        H  0.45169464  0.78444465  0.89821166     0.09800
Br333      Br  0.37788916  0.68404286  0.81807042    -0.05700
Br334      Br  0.27725965  0.81637384  0.82355327    -0.02700
Br335      Br  0.39441130  0.68535285  0.95370990     0.00200
Br336      Br  0.41440827  0.80180345  0.83757756    -0.04200
C337        C  0.19429582  0.70111163  0.75383079    -0.11600
C338        C  0.17285952  0.69635325  0.78153255     0.03900
C339        C  0.14906005  0.67059668  0.78118446    -0.12100
C340        C  0.14626281  0.64938545  0.75349668     0.18700
C341        C  0.16765908  0.65416092  0.72583580    -0.09200
C342        C  0.19137727  0.67992976  0.72613357    -0.02100
H343        H  0.13239150  0.66732945  0.80237857     0.05300
C344        C  0.12021158  0.62305981  0.75338757     0.20700
H345        H  0.20780991  0.68331765  0.70477527     0.10400
C346        C  0.09170095  0.62679900  0.73294778    -0.15500
C347        C  0.06674051  0.60220234  0.73178912     0.03400
C348        C  0.07015835  0.57324820  0.75135903    -0.10800
C349        C  0.09835576  0.56986476  0.77234837    -0.00900
C350        C  0.12339689  0.59441459  0.77334001    -0.06000
H351        H  0.08882088  0.64904743  0.71795485     0.06400
H352        H  0.10121604  0.54776495  0.78756422     0.09800
Br353      Br  0.16588205  0.62558051  0.68750247    -0.05700
Br354      Br  0.17389440  0.72543336  0.81952690    -0.02700
Br355      Br  0.02750910  0.61043812  0.70483758     0.00200
Br356      Br  0.16205412  0.58727701  0.80131683    -0.04200
C357        C  0.76090948  0.07433189  0.42177199    -0.11600
C358        C  0.78982913  0.09379111  0.41425584     0.03900
C359        C  0.78812971  0.11803561  0.38927696    -0.12100
C360        C  0.75825335  0.12339221  0.37143099     0.18700
C361        C  0.72964221  0.10400992  0.37841602    -0.09200
C362        C  0.73106310  0.07985555  0.40344113    -0.02100
H363        H  0.81019396  0.13305273  0.38388239     0.05300
C364        C  0.75734894  0.14965514  0.34584572     0.20700
H365        H  0.70863864  0.06525043  0.40843031     0.10400
C366        C  0.76278848  0.14116977  0.31234728    -0.15500
C367        C  0.76250454  0.16563568  0.28756183     0.03400
C368        C  0.75673943  0.19912740  0.29630399    -0.10800
C369        C  0.75151158  0.20759113  0.32988792    -0.00900
C370        C  0.75165940  0.18307816  0.35462923    -0.06000
H371        H  0.76747246  0.11549729  0.30554951     0.06400
H372        H  0.74701550  0.23326868  0.33679065     0.09800
Br373      Br  0.68804166  0.11006463  0.35461062    -0.05700
Br374      Br  0.83217776  0.09010070  0.43745078    -0.02700
Br375      Br  0.77162206  0.15236306  0.24241611     0.00200
Br376      Br  0.74352185  0.19609746  0.40000567    -0.04200
C377        C  0.75922923  0.93149922  0.56937497    -0.11600
C378        C  0.73505911  0.93163787  0.59532596     0.03900
C379        C  0.73526217  0.90628614  0.61920467    -0.12100
C380        C  0.75935895  0.88078509  0.61791007     0.18700
C381        C  0.78409533  0.88108616  0.59271316    -0.09200
C382        C  0.78395283  0.90638023  0.56875417    -0.02100
H383        H  0.71646281  0.90638453  0.63888694     0.05300
C384        C  0.75750758  0.85361773  0.64255357     0.20700
H385        H  0.80290820  0.90608526  0.54922730     0.10400
C386        C  0.74344509  0.82305815  0.63296876    -0.15500
C387        C  0.73991859  0.79722124  0.65606366     0.03400
C388        C  0.75031889  0.80197012  0.68930888    -0.10800
C389        C  0.76449552  0.83248175  0.69887156    -0.00900
C390        C  0.76824554  0.85824377  0.67571773    -0.06000
H391        H  0.73498027  0.81941955  0.60747649     0.06400
H392        H  0.77308648  0.83606954  0.72432884     0.09800
Br393      Br  0.81865641  0.84768565  0.59038203    -0.05700
Br394      Br  0.70246912  0.96664775  0.60077279    -0.02700
Br395      Br  0.72027643  0.75612598  0.64142045     0.00200
Br396      Br  0.78898243  0.89892868  0.69006116    -0.04200
C397        C  0.74811913  0.19972350  0.69454498    -0.11600
C398        C  0.74035118  0.20731631  0.66105862     0.03900
C399        C  0.74307383  0.18265993  0.63651249    -0.12100
C400        C  0.75356764  0.15040209  0.64486013     0.18700
C401        C  0.76139243  0.14281985  0.67826736    -0.09200
C402        C  0.75844924  0.16738078  0.70286306    -0.02100
H403        H  0.73675431  0.18856658  0.61087361     0.05300
C404        C  0.75537731  0.12472803  0.61854534     0.20700
H405        H  0.76475320  0.16139041  0.72848769     0.10400
C406        C  0.78457511  0.12193833  0.59896302    -0.15500
C407        C  0.78699070  0.09781306  0.57377855     0.03400
C408        C  0.75964669  0.07582768  0.56793229    -0.10800
C409        C  0.73036212  0.07907039  0.58766348    -0.00900
C410        C  0.72809505  0.10319936  0.61268883    -0.06000
H411        H  0.80552726  0.13875417  0.60321422     0.06400
H412        H  0.70904969  0.06261683  0.58379942     0.09800
Br413      Br  0.77658720  0.09937761  0.69116882    -0.05700
Br414      Br  0.72480402  0.25060941  0.64793472    -0.02700
Br415      Br  0.82759234  0.09776460  0.54749696     0.00200
Br416      Br  0.68714956  0.10612127  0.63819536    -0.04200
C417        C  0.24218220  0.92921357  0.43010706    -0.11600
C418        C  0.21772123  0.90378418  0.42666256     0.03900
C419        C  0.22133658  0.87960372  0.40162783    -0.12100
C420        C  0.24911267  0.87991099  0.37979421     0.18700
C421        C  0.27330163  0.90541079  0.38298202    -0.09200
C422        C  0.26978838  0.92957166  0.40798012    -0.02100
H423        H  0.20257012  0.86010875  0.39945379     0.05300
C424        C  0.25263460  0.85321510  0.35423629     0.20700
H425        H  0.28880737  0.94883611  0.41006668     0.10400
C426        C  0.25029974  0.86123302  0.32018176    -0.15500
C427        C  0.25301337  0.83655408  0.29553459     0.03400
C428        C  0.25794410  0.80301829  0.30475807    -0.10800
C429        C  0.26023331  0.79502661  0.33882811    -0.00900
C430        C  0.25782575  0.81973568  0.36343451    -0.06000
H431        H  0.24593180  0.88678710  0.31276579     0.06400
H432        H  0.26395843  0.76939174  0.34631512     0.09800
Br433      Br  0.31231754  0.90760403  0.35463132    -0.05700
Br434      Br  0.18013609  0.89909460  0.45664418    -0.06100
Br435      Br  0.24766812  0.84969865  0.24979584     0.00200
Br436      Br  0.26275672  0.80665026  0.40924669    -0.04200
C437        C  0.23784333  0.19772089  0.70418909    -0.11600
C438        C  0.23110073  0.16435234  0.71254993     0.03900
C439        C  0.22893572  0.14033302  0.68731589    -0.12100
C440        C  0.23334287  0.14913691  0.65366626     0.18700
C441        C  0.23870600  0.18277229  0.64530073    -0.09200
C442        C  0.24089237  0.20671777  0.67050838    -0.02100
H443        H  0.22409771  0.11465818  0.69393734     0.05300
C444        C  0.23315163  0.12290063  0.62771231     0.20700
H445        H  0.24583427  0.23237361  0.66386261     0.10400
C446        C  0.20714846  0.12223295  0.60396639    -0.15500
C447        C  0.20703054  0.09860840  0.57825523     0.03400
C448        C  0.23314688  0.07464674  0.57627625    -0.10800
C449        C  0.25908977  0.07539858  0.60025530    -0.00900
C450        C  0.25924435  0.09916735  0.62577818    -0.06000
H451        H  0.18715517  0.14062001  0.60510906     0.06400
H452        H  0.27940710  0.05736125  0.59920841     0.09800
Br453      Br  0.24490467  0.19707434  0.60001596    -0.05700
Br454      Br  0.22354270  0.15075184  0.75785652    -0.02700
Br455      Br  0.17191358  0.10227750  0.54543767     0.00200
Br456      Br  0.29639316  0.09908466  0.65659105    -0.04200
C457        C  0.23565645  0.93113745  0.57726189    -0.11600
C458        C  0.25583937  0.93442010  0.60612226     0.03900
C459        C  0.25553220  0.90945055  0.63045597    -0.12100
C460        C  0.23537870  0.88103478  0.62657835     0.18700
C461        C  0.21469360  0.87803366  0.59816122    -0.09200
C462        C  0.21479631  0.90308585  0.57387471    -0.02100
H463        H  0.27114066  0.91214154  0.65249938     0.05300
C464        C  0.23680748  0.85458162  0.65219203     0.20700
H465        H  0.19916778  0.90024577  0.55186178     0.10400
C466        C  0.20999639  0.85090178  0.67480356    -0.15500
C467        C  0.21106173  0.82644826  0.69969635     0.03400
C468        C  0.23935866  0.80518887  0.70215968    -0.10800
C469        C  0.26618921  0.80907368  0.67957101    -0.00900
C470        C  0.26504714  0.83344113  0.65469428    -0.06000
H471        H  0.18835577  0.86733502  0.67326234     0.06400
H472        H  0.28796619  0.79280549  0.68106655     0.09800
Br473      Br  0.18710692  0.83949952  0.59085526    -0.05700
Br474      Br  0.28280401  0.97323428  0.61453759    -0.02700
Br475      Br  0.17414909  0.82437046  0.73073220     0.00200
Br476      Br  0.30219409  0.83640186  0.62406640    -0.04200
C477        C  0.69788056  0.74829492  0.19699720    -0.11600
C478        C  0.69094977  0.77531170  0.17556399     0.03900
C479        C  0.66653720  0.77202699  0.15055176    -0.12100
C480        C  0.64896994  0.74205723  0.14615515     0.18700
C481        C  0.65630274  0.71484927  0.16700027    -0.09200
C482        C  0.68047151  0.71816438  0.19225111    -0.02100
H483        H  0.66139797  0.79288366  0.13419461     0.05300
C484        C  0.62297961  0.73996150  0.11977632     0.20700
H485        H  0.68560990  0.69713883  0.20837915     0.10400
C486        C  0.62916137  0.72088099  0.09105057    -0.15500
C487        C  0.60552452  0.71978255  0.06505183     0.03400
C488        C  0.57537792  0.73830882  0.06756147    -0.10800
C489        C  0.56927645  0.75730576  0.09630993    -0.00900
C490        C  0.59261871  0.75800733  0.12242573    -0.06000
H491        H  0.65265069  0.70722162  0.08867931     0.06400
H492        H  0.54599318  0.77132900  0.09864955     0.09800
Br493      Br  0.63343131  0.67302322  0.16239305    -0.05700
Br494      Br  0.71550376  0.81644062  0.17763980    -0.02700
Br495      Br  0.61659401  0.69456542  0.02585579     0.00200
Br496      Br  0.58152970  0.78317775  0.16164679    -0.04200
C497        C  0.75773436  0.92935608  0.42297982    -0.11600
C498        C  0.78262096  0.90423325  0.42015934     0.03900
C499        C  0.78008186  0.88024068  0.39489349    -0.12100
C500        C  0.75315692  0.88073520  0.37218096     0.18700
C501        C  0.72818870  0.90544491  0.37509150    -0.09200
C502        C  0.73058786  0.92941736  0.40029941    -0.02100
H503        H  0.79909920  0.86091870  0.39306708     0.05300
C504        C  0.75106149  0.85470460  0.34619084     0.20700
H505        H  0.71115652  0.94833791  0.40203248     0.10400
C506        C  0.73934927  0.82296326  0.35492189    -0.15500
C507        C  0.73743685  0.79761103  0.33104553     0.03400
C508        C  0.74750366  0.80384191  0.29791730    -0.10800
C509        C  0.75885281  0.83569442  0.28907606    -0.00900
C510        C  0.76079210  0.86106041  0.31297799    -0.06000
H511        H  0.73163237  0.81795040  0.38037102     0.06400
H512        H  0.76681495  0.84062611  0.26368354     0.09800
Br513      Br  0.69005161  0.90692563  0.34556825    -0.05700
Br514      Br  0.81939307  0.89979272  0.45111482    -0.02700
Br515      Br  0.72029279  0.75509002  0.34454964     0.00200
Br516      Br  0.77780101  0.90367358  0.29953812    -0.04200
C517        C  0.07593616  0.57759959  0.26035576    -0.11600
C518        C  0.07521924  0.60430801  0.28331789     0.03900
C519        C  0.10075268  0.62849307  0.28259504    -0.12100
C520        C  0.12702145  0.62670647  0.25915363     0.18700
C521        C  0.12767258  0.60026428  0.23617109    -0.09200
C522        C  0.10223869  0.57612421  0.23680520    -0.02100
H523        H  0.09990631  0.64902232  0.30011495     0.05300
C524        C  0.15359309  0.65258558  0.25889382     0.20700
H525        H  0.10321625  0.55588714  0.21895028     0.10400
C526        C  0.18161802  0.64920218  0.28005025    -0.15500
C527        C  0.20771160  0.67273784  0.27963389     0.03400
C528        C  0.20596308  0.70011298  0.25778136    -0.10800
C529        C  0.17788466  0.70355264  0.23669608    -0.00900
C530        C  0.15172428  0.68009623  0.23720986    -0.06000
H531        H  0.18331509  0.62803413  0.29669197     0.06400
H532        H  0.17627618  0.72461974  0.21991396     0.09800
Br533      Br  0.16299026  0.59611482  0.20361950    -0.05700
Br534      Br  0.03888781  0.61049985  0.31448964    -0.02700
Br535      Br  0.24562347  0.66622475  0.30870072     0.00200
Br536      Br  0.11385699  0.68654767  0.20805604    -0.04200
C537        C  0.80779755  0.30098700  0.24595496    -0.11600
C538        C  0.84258532  0.29313183  0.24586327     0.03900
C539        C  0.86658307  0.31866108  0.24727179    -0.12100
C540        C  0.85645877  0.35206137  0.24838602     0.18700
C541        C  0.82185724  0.35996782  0.24758527    -0.09200
C542        C  0.79783719  0.33452073  0.24647930    -0.02100
H543        H  0.89322167  0.31249632  0.24720599     0.05300
C544        C  0.88225281  0.37849868  0.24978901     0.20700
H545        H  0.77125542  0.34092015  0.24647135     0.10400
C546        C  0.89038914  0.39578946  0.22060555    -0.15500
C547        C  0.91377116  0.42185701  0.22103224     0.03400
C548        C  0.92974440  0.43102785  0.25142570    -0.10800
C549        C  0.92136532  0.41334422  0.28064176    -0.00900
C550        C  0.89792869  0.38730257  0.27996669    -0.06000
H551        H  0.87811681  0.38914625  0.19735895     0.06400
H552        H  0.93317949  0.41961022  0.30420106     0.09800
Br553      Br  0.80638483  0.40519959  0.24855881    -0.05700
Br554      Br  0.85872863  0.24824114  0.24182736    -0.02700
Br555      Br  0.92110196  0.44396431  0.17910088     0.00200
Br556      Br  0.88744590  0.36480862  0.32090904    -0.04200
C557        C  0.92891865  0.57689493  0.25245590    -0.11600
C558        C  0.90096076  0.57415008  0.23082842     0.03900
C559        C  0.87652526  0.59929320  0.23020275    -0.12100
C560        C  0.87965433  0.62752231  0.25058428     0.18700
C561        C  0.90757285  0.63019871  0.27224949    -0.09200
C562        C  0.93175297  0.60485492  0.27322353    -0.02100
H563        H  0.85476120  0.59666058  0.21401261     0.05300
C564        C  0.85287118  0.65319991  0.24996643     0.20700
H565        H  0.95320960  0.60727444  0.28985070     0.10400
C566        C  0.83337612  0.65843716  0.27873079    -0.15500
C567        C  0.80779556  0.68240463  0.27928486     0.03400
C568        C  0.80131349  0.70170990  0.25057627    -0.10800
C569        C  0.82049683  0.69604480  0.22159683    -0.00900
C570        C  0.84605778  0.67200906  0.22107612    -0.06000
H571        H  0.83791620  0.64352684  0.30080547     0.06400
H572        H  0.81575648  0.71060889  0.19933889     0.09800
Br573      Br  0.91445896  0.66847979  0.30009054    -0.05700
Br574      Br  0.89369119  0.53567124  0.20336893    -0.02700
Br575      Br  0.78129715  0.68599486  0.31924384     0.00200
Br576      Br  0.87151668  0.66651308  0.18065461    -0.04200
C577        C  0.29775293  0.25233347  0.20106299    -0.11600
C578        C  0.33217871  0.25813709  0.20787145     0.03900
C579        C  0.35572693  0.25815353  0.18178619    -0.12100
C580        C  0.34548185  0.25270660  0.14869977     0.18700
C581        C  0.31095512  0.24774186  0.14177570    -0.09200
C582        C  0.28738239  0.24767150  0.16788041    -0.02100
H583        H  0.38217073  0.26232415  0.18731683     0.05300
C584        C  0.37135572  0.25143522  0.12198789     0.20700
H585        H  0.26091983  0.24366057  0.16232863     0.10400
C586        C  0.37960531  0.22075090  0.10752022    -0.15500
C587        C  0.40487509  0.21821259  0.08311862     0.03400
C588        C  0.42287300  0.24700188  0.07289659    -0.10800
C589        C  0.41395692  0.27780729  0.08731733    -0.00900
C590        C  0.38855127  0.28016332  0.11151613    -0.06000
H591        H  0.36629911  0.19854380  0.11539728     0.06400
H592        H  0.42686472  0.30037394  0.07990062     0.09800
Br593      Br  0.29486759  0.24171220  0.09701871    -0.05700
Br594      Br  0.34797382  0.26752795  0.25217304    -0.02700
Br595      Br  0.41221464  0.17463882  0.06474830     0.00200
Br596      Br  0.37755670  0.32329103  0.12899435    -0.04200
C597        C  0.23935161  0.07471073  0.42992623    -0.11600
C598        C  0.21197672  0.09647194  0.42325181     0.03900
C599        C  0.21482521  0.12041401  0.39799671    -0.12100
C600        C  0.24441723  0.12319432  0.37903772     0.18700
C601        C  0.27166960  0.10180270  0.38558166    -0.09200
C602        C  0.26904593  0.07793172  0.41082168    -0.02100
H603        H  0.19387080  0.13710824  0.39318423     0.05300
C604        C  0.24660715  0.14890457  0.35282256     0.20700
H605        H  0.29035400  0.06159442  0.41528512     0.10400
C606        C  0.25740781  0.18099725  0.36139428    -0.15500
C607        C  0.25930358  0.20604379  0.33722447     0.03400
C608        C  0.25039368  0.19903587  0.30390798    -0.10800
C609        C  0.24007772  0.16678367  0.29525027    -0.00900
C610        C  0.23796702  0.14179634  0.31949502    -0.06000
H611        H  0.26427502  0.18656040  0.38697148     0.06400
H612        H  0.23291369  0.16126495  0.26974320     0.09800
Br613      Br  0.31292472  0.10442215  0.36057802    -0.05700
Br614      Br  0.17060418  0.09633832  0.44831869    -0.02700
Br615      Br  0.27469816  0.24929729  0.35062730     0.00200
Br616      Br  0.22247861  0.09853465  0.30634074    -0.04200
C617        C  0.19765310  0.30208120  0.25902648    -0.11600
C618        C  0.20621248  0.33607451  0.26103174     0.03900
C619        C  0.18070509  0.36005772  0.26319431    -0.12100
C620        C  0.14655564  0.35076837  0.26407397     0.18700
C621        C  0.13800176  0.31676335  0.26295502    -0.09200
C622        C  0.16348098  0.29277554  0.26040916    -0.02100
H623        H  0.18753178  0.38614261  0.26413601     0.05300
C624        C  0.12034579  0.37702509  0.26432505     0.20700
H625        H  0.15659323  0.26671107  0.25936060     0.10400
C626        C  0.09894858  0.38012311  0.23665414    -0.15500
C627        C  0.07488858  0.40550093  0.23497646     0.03400
C628        C  0.07256061  0.42914226  0.26105208    -0.10800
C629        C  0.09351484  0.42549313  0.28915467    -0.00900
C630        C  0.11721384  0.39969011  0.29097222    -0.06000
H631        H  0.10096063  0.36257543  0.21619601     0.06400
H632        H  0.09169271  0.44294052  0.30970216     0.09800
Br633      Br  0.09202950  0.30182793  0.26580045    -0.05700
Br634      Br  0.25222854  0.35103501  0.26286386    -0.02700
Br635      Br  0.04467916  0.40475315  0.19741999     0.00200
Br636      Br  0.14400569  0.39580257  0.33070458    -0.04200
loop_ 
_geom_bond_atom_site_label_1 
_geom_bond_atom_site_label_2 
_geom_bond_distance 
_geom_bond_site_symmetry_2 
_ccdc_geom_bond_type 
C1            C2   1.403       .  A
C1            C6   1.401       .  A
C1          C608   1.476       .  S
C2            C3   1.406       .  A
C2            H7   1.084       .  S
C3            C4   1.403       .  A
C3          C577   1.480       .  S
C4            C5   1.405       .  A
C4            H8   1.084       .  S
C5            C6   1.401       .  A
C5          C617   1.480       .  S
C6            H9   1.084       .  S
O10         Cu18   2.022       .  S
O10          C20   1.279       .  A
O11         Cu18   2.022   1_655  S
O11          C21   1.281       .  A
O12         Cu18   2.011       .  S
O12          C22   1.278       .  A
O13         Cu18   2.007   1_655  S
O13          C23   1.277       .  A
O14         Cu19   2.007   1_655  S
O14          C23   1.277       .  A
O15         Cu19   2.001       .  S
O15          C22   1.277       .  A
O16         Cu19   1.996   1_655  S
O16          C21   1.275       .  A
O17         Cu19   2.006       .  S
O17          C20   1.277       .  A
Cu18        Cu19   2.369       .  S
C20         C517   1.482       .  S
C21         C548   1.489       .  S
C22         C628   1.481       .  S
C23         C557   1.472       .  S
C24          C25   1.402       .  A
C24          C29   1.403       .  A
C24         C568   1.481       .  S
C25          C26   1.403       .  A
C25          H30   1.084       .  S
C26          C27   1.406       .  A
C26         C477   1.483       .  S
C27          C28   1.403       .  A
C27          H31   1.083       .  S
C28          C29   1.402       .  A
C28         C508   1.476       .  S
C29          H32   1.084       .  S
O33         Cu41   2.009       .  S
O33          C43   1.279       .  A
O34         Cu41   2.009   1_565  S
O34          C44   1.278       .  A
O35         Cu41   2.018   1_565  S
O35          C45   1.279       .  A
O36         Cu41   2.010       .  S
O36          C46   1.278       .  A
O37         Cu42   2.017       .  S
O37          C46   1.278       .  A
O38         Cu42   2.018   1_565  S
O38          C45   1.278       .  A
O39         Cu42   2.014   1_565  S
O39          C44   1.278       .  A
O40         Cu42   2.015       .  S
O40          C43   1.278       .  A
Cu41        Cu42   2.369       .  S
C43         C597   1.487       .  S
C44         C457   1.477       .  S
C45         C417   1.488       .  S
C46         C448   1.485       .  S
O47         Cu55   2.002       .  S
O47          C57   1.278       .  A
O48         Cu55   2.006   1_565  S
O48          C58   1.278       .  A
O49         Cu55   2.009   1_565  S
O49          C59   1.278       .  A
O50         Cu55   2.008       .  S
O50          C60   1.279       .  A
O51         Cu56   2.003       .  S
O51          C60   1.276       .  A
O52         Cu56   2.003   1_565  S
O52          C59   1.277       .  A
O53         Cu56   2.017   1_565  S
O53          C58   1.279       .  A
O54         Cu56   2.020       .  S
O54          C57   1.279       .  A
Cu55        Cu56   2.368       .  S
C57         C408   1.487       .  S
C58         C497   1.484       .  S
C59         C377   1.477       .  S
C60         C357   1.486       .  S
C61          C62   1.403       .  A
C61          C66   1.403       .  A
C61         C337   1.478       .  S
C62          C63   1.404       .  A
C62          H67   1.084       .  S
C63          C64   1.405       .  A
C63         C468   1.481       .  S
C64          C65   1.404       .  A
C64          H68   1.084       .  S
C65          C66   1.404       .  A
C65         C317   1.481       .  S
C66          H69   1.084       .  S
O70         Cu78   1.997       .  S
O70          C80   1.278       .  A
O71         Cu78   2.006   1_455  S
O71          C81   1.276       .  A
O72         Cu78   2.018       .  S
O72          C82   1.280       .  A
O73         Cu78   2.012   1_455  S
O73          C83   1.278       .  A
O74         Cu79   2.005   1_455  S
O74          C83   1.277       .  A
O75         Cu79   2.005       .  S
O75          C82   1.276       .  A
O76         Cu79   2.006   1_455  S
O76          C81   1.279       .  A
O77         Cu79   2.007       .  S
O77          C80   1.276       .  A
Cu78        Cu79   2.365       .  S
C80         C277   1.486       .  S
C81         C268   1.490       .  S
C82         C297   1.493       .  S
C83         C348   1.474       .  S
C84          C85   1.404       .  A
C84          C89   1.401       .  A
C84         C308   1.480       .  S
C85          C86   1.406       .  A
C85          H90   1.084       .  S
C86          C87   1.406       .  A
C86         C237   1.484       .  S
C87          C88   1.404       .  A
C87          H91   1.084       .  S
C88          C89   1.401       .  A
C88         C397   1.477       .  S
C89          H92   1.084       .  S
O93        Cu101   2.020       .  S
O93         C103   1.278       .  A
O94        Cu101   2.029   1_554  S
O94         C104   1.281       .  A
O95        Cu101   2.012       .  S
O95         C105   1.278       .  A
O96        Cu101   2.011   1_554  S
O96         C106   1.277       .  A
O97        Cu102   2.003   1_554  S
O97         C106   1.277       .  A
O98        Cu102   2.009       .  S
O98         C105   1.278       .  A
O99        Cu102   2.013   1_554  S
O99         C104   1.278       .  A
O100       Cu102   2.012       .  S
O100        C103   1.279       .  A
Cu101      Cu102   2.368       .  S
C103        C208   1.493       .  S
C104        C217   1.492       .  S
C105        C328   1.481       .  S
C106        C488   1.471       .  S
O107       Cu115   2.008       .  S
O107        C117   1.278       .  A
O108       Cu115   2.010   1_556  S
O108        C118   1.277       .  A
O109       Cu115   2.006   1_556  S
O109        C119   1.277       .  A
O110       Cu115   2.009       .  S
O110        C120   1.277       .  A
O111       Cu116   2.007       .  S
O111        C120   1.278       .  A
O112       Cu116   2.009   1_556  S
O112        C119   1.277       .  A
O113       Cu116   2.015   1_556  S
O113        C118   1.280       .  A
O114       Cu116   2.021       .  S
O114        C117   1.278       .  A
Cu115      Cu116   2.366       .  S
C117        C588   1.494       .  S
C118        C248   1.493       .  S
C119        C157   1.473       .  S
C120        C188   1.484       .  S
C121        C122   1.403       .  A
C121        C126   1.400       .  A
C121        C388   1.472       .  S
C122        C123   1.405       .  A
C122        H127   1.084       .  S
C123        C124   1.403       .  A
C123        C197   1.482       .  S
C124        C125   1.404       .  A
C124        H128   1.084       .  S
C125        C126   1.402       .  A
C125        C288   1.481       .  S
C126        H129   1.083       .  S
C130        C131   1.404       .  A
C130        C135   1.405       .  A
C130        C537   1.480       .  S
C131        C132   1.401       .  A
C131        H136   1.084       .  S
C132        C133   1.400       .  A
C132        C368   1.474       .  S
C133        C134   1.401       .  A
C133        H137   1.084       .  S
C134        C135   1.403       .  A
C134        C177   1.475       .  S
C135        H138   1.085       .  S
C139        C140   1.400       .  A
C139        C144   1.403       .  A
C139        C437   1.476       .  S
C140        C141   1.400       .  A
C140        H145   1.084       .  S
C141        C142   1.403       .  A
C141        C257   1.474       .  S
C142        C143   1.406       .  A
C142        H146   1.084       .  S
C143        C144   1.404       .  A
C143        C168   1.481       .  S
C144        H147   1.084       .  S
C148        C149   1.406       .  A
C148        C153   1.409       .  A
C148        C228   1.488       .  S
C149        C150   1.402       .  A
C149        H154   1.084       .  S
C150        C151   1.402       .  A
C150        C528   1.478       .  S
C151        C152   1.405       .  A
C151        H155   1.084       .  S
C152        C153   1.410       .  A
C152        C428   1.488       .  S
C153        H156   1.084       .  S
C157        C158   1.409       .  A
C157        C162   1.404       .  A
C158        C159   1.398       .  A
C158       Br174   1.920       .  S
C159        C160   1.401       .  A
C159        H163   1.084       .  S
C160        C161   1.407       .  A
C160        C164   1.476       .  S
C161        C162   1.400       .  A
C161       Br173   1.918       .  S
C162        H165   1.084       .  S
C164        C166   1.401       .  A
C164        C170   1.407       .  A
C166        C167   1.399       .  A
C166        H171   1.083       .  S
C167        C168   1.411       .  A
C167       Br175   1.918       .  S
C168        C169   1.405       .  A
C169        C170   1.399       .  A
C169        H172   1.083       .  S
C170       Br176   1.918       .  S
C177        C178   1.409       .  A
C177        C182   1.403       .  A
C178        C179   1.398       .  A
C178       Br194   1.919       .  S
C179        C180   1.402       .  A
C179        H183   1.083       .  S
C180        C181   1.408       .  A
C180        C184   1.476       .  S
C181        C182   1.399       .  A
C181       Br193   1.918       .  S
C182        H185   1.083       .  S
C184        C186   1.400       .  A
C184        C190   1.405       .  A
C186        C187   1.399       .  A
C186        H191   1.084       .  S
C187        C188   1.417       .  A
C187       Br195   1.921       .  S
C188        C189   1.407       .  A
C189        C190   1.398       .  A
C189        H192   1.083       .  S
C190       Br196   1.919       .  S
C197        C198   1.411       .  A
C197        C202   1.404       .  A
C198        C199   1.401       .  A
C198       Br214   1.920       .  S
C199        C200   1.403       .  A
C199        H203   1.084       .  S
C200        C201   1.407       .  A
C200        C204   1.480       .  S
C201        C202   1.399       .  A
C201       Br213   1.918       .  S
C202        H205   1.084       .  S
C204        C206   1.401       .  A
C204        C210   1.404       .  A
C206        C207   1.402       .  A
C206        H211   1.084       .  S
C207        C208   1.419       .  A
C207       Br215   1.921       .  S
C208        C209   1.410       .  A
C209        C210   1.399       .  A
C209        H212   1.083       .  S
C210       Br216   1.919       .  S
C217        C218   1.417       .  A
C217        C222   1.407       .  A
C218        C219   1.402       .  A
C218       Br234   1.921       .  S
C219        C220   1.402       .  A
C219        H223   1.084       .  S
C220        C221   1.410       .  A
C220        C224   1.490       .  S
C221        C222   1.404       .  A
C221       Br233   1.918       .  S
C222        H225   1.083       .  S
C224        C226   1.404       .  A
C224        C230   1.411       .  A
C226        C227   1.402       .  A
C226        H231   1.083       .  S
C227        C228   1.412       .  A
C227       Br235   1.919       .  S
C228        C229   1.405       .  A
C229        C230   1.404       .  A
C229        H232   1.083       .  S
C230       Br236   1.918       .  S
C237        C238   1.413       .  A
C237        C242   1.405       .  A
C238        C239   1.400       .  A
C238       Br254   1.920       .  S
C239        C240   1.401       .  A
C239        H243   1.083       .  S
C240        C241   1.407       .  A
C240        C244   1.478       .  S
C241        C242   1.400       .  A
C241       Br253   1.918       .  S
C242        H245   1.083       .  S
C244        C246   1.399       .  A
C244        C250   1.404       .  A
C246        C247   1.401       .  A
C246        H251   1.084       .  S
C247        C248   1.421       .  A
C247       Br255   1.922       .  S
C248        C249   1.410       .  A
C249        C250   1.400       .  A
C249        H252   1.083       .  S
C250       Br256   1.918       .  S
C257        C258   1.408       .  A
C257        C262   1.402       .  A
C258        C259   1.400       .  A
C258       Br274   1.917       .  S
C259        C260   1.403       .  A
C259        H263   1.083       .  S
C260        C261   1.408       .  A
C260        C264   1.475       .  S
C261        C262   1.397       .  A
C261       Br273   1.919       .  S
C262        H265   1.084       .  S
C264        C266   1.399       .  A
C264        C270   1.404       .  A
C266        C267   1.400       .  A
C266        H271   1.084       .  S
C267        C268   1.420       .  A
C267       Br275   1.923       .  S
C268        C269   1.409       .  A
C269        C270   1.396       .  A
C269        H272   1.083       .  S
C270       Br276   1.919       .  S
C277        C278   1.419       .  A
C277        C282   1.409       .  A
C278        C279   1.399       .  A
C278       Br294   1.922       .  S
C279        C280   1.399       .  A
C279        H283   1.084       .  S
C280        C281   1.402       .  A
C280        C284   1.471       .  S
C281        C282   1.395       .  A
C281       Br293   1.919       .  S
C282        H285   1.083       .  S
C284        C286   1.400       .  A
C284        C290   1.405       .  A
C286        C287   1.398       .  A
C286        H291   1.083       .  S
C287        C288   1.414       .  A
C287       Br295   1.921       .  S
C288        C289   1.405       .  A
C289        C290   1.396       .  A
C289        H292   1.083       .  S
C290       Br296   1.919       .  S
C297        C298   1.421       .  A
C297        C302   1.411       .  A
C298        C299   1.399       .  A
C298       Br314   1.923       .  S
C299        C300   1.398       .  A
C299        H303   1.084       .  S
C300        C301   1.404       .  A
C300        C304   1.477       .  S
C301        C302   1.400       .  A
C301       Br313   1.918       .  S
C302        H305   1.083       .  S
C304        C306   1.403       .  A
C304        C310   1.407       .  A
C306        C307   1.401       .  A
C306        H311   1.083       .  S
C307        C308   1.410       .  A
C307       Br315   1.919       .  S
C308        C309   1.404       .  A
C309        C310   1.398       .  A
C309        H312   1.083       .  S
C310       Br316   1.918       .  S
C317        C318   1.410       .  A
C317        C322   1.404       .  A
C318        C319   1.399       .  A
C318       Br334   1.919       .  S
C319        C320   1.403       .  A
C319        H323   1.083       .  S
C320        C321   1.409       .  A
C320        C324   1.482       .  S
C321        C322   1.400       .  A
C321       Br333   1.919       .  S
C322        H325   1.083       .  S
C324        C326   1.403       .  A
C324        C330   1.408       .  A
C326        C327   1.400       .  A
C326        H331   1.084       .  S
C327        C328   1.412       .  A
C327       Br335   1.920       .  S
C328        C329   1.406       .  A
C329        C330   1.399       .  A
C329        H332   1.083       .  S
C330       Br336   1.919       .  S
C337        C338   1.410       .  A
C337        C342   1.403       .  A
C338        C339   1.400       .  A
C338       Br354   1.919       .  S
C339        C340   1.403       .  A
C339        H343   1.083       .  S
C340        C341   1.408       .  A
C340        C344   1.478       .  S
C341        C342   1.398       .  A
C341       Br353   1.919       .  S
C342        H345   1.083       .  S
C344        C346   1.402       .  A
C344        C350   1.408       .  A
C346        C347   1.399       .  A
C346        H351   1.083       .  S
C347        C348   1.410       .  A
C347       Br355   1.920       .  S
C348        C349   1.404       .  A
C349        C350   1.399       .  A
C349        H352   1.083       .  S
C350       Br356   1.918       .  S
C357        C358   1.419       .  A
C357        C362   1.409       .  A
C358        C359   1.399       .  A
C358       Br374   1.922       .  S
C359        C360   1.399       .  A
C359        H363   1.084       .  S
C360        C361   1.403       .  A
C360        C364   1.472       .  S
C361        C362   1.397       .  A
C361       Br373   1.918       .  S
C362        H365   1.083       .  S
C364        C366   1.401       .  A
C364        C370   1.407       .  A
C366        C367   1.398       .  A
C366        H371   1.083       .  S
C367        C368   1.409       .  A
C367       Br375   1.919       .  S
C368        C369   1.403       .  A
C369        C370   1.398       .  A
C369        H372   1.083       .  S
C370       Br376   1.918       .  S
C377        C378   1.412       .  A
C377        C382   1.406       .  A
C378        C379   1.398       .  A
C378       Br394   1.921       .  S
C379        C380   1.401       .  A
C379        H383   1.084       .  S
C380        C381   1.406       .  A
C380        C384   1.474       .  S
C381        C382   1.398       .  A
C381       Br393   1.918       .  S
C382        H385   1.084       .  S
C384        C386   1.402       .  A
C384        C390   1.407       .  A
C386        C387   1.398       .  A
C386        H391   1.085       .  S
C387        C388   1.407       .  A
C387       Br395   1.918       .  S
C388        C389   1.402       .  A
C389        C390   1.398       .  A
C389        H392   1.085       .  S
C390       Br396   1.918       .  S
C397        C398   1.410       .  A
C397        C402   1.403       .  A
C398        C399   1.400       .  A
C398       Br414   1.919       .  S
C399        C400   1.402       .  A
C399        H403   1.084       .  S
C400        C401   1.407       .  A
C400        C404   1.476       .  S
C401        C402   1.399       .  A
C401       Br413   1.918       .  S
C402        H405   1.084       .  S
C404        C406   1.401       .  A
C404        C410   1.404       .  A
C406        C407   1.402       .  A
C406        H411   1.084       .  S
C407        C408   1.417       .  A
C407       Br415   1.921       .  S
C408        C409   1.409       .  A
C409        C410   1.397       .  A
C409        H412   1.083       .  S
C410       Br416   1.919       .  S
C417        C418   1.415       .  A
C417        C422   1.407       .  A
C418        C419   1.403       .  A
C418       Br434   1.921       .  S
C419        C420   1.405       .  A
C419        H423   1.083       .  S
C420        C421   1.409       .  A
C420        C424   1.489       .  S
C421        C422   1.401       .  A
C421       Br433   1.919       .  S
C422        H425   1.083       .  S
C424        C426   1.405       .  A
C424        C430   1.410       .  A
C426        C427   1.403       .  A
C426        H431   1.083       .  S
C427        C428   1.411       .  A
C427       Br435   1.919       .  S
C428        C429   1.405       .  A
C429        C430   1.402       .  A
C429        H432   1.083       .  S
C430       Br436   1.919       .  S
C437        C438   1.408       .  A
C437        C442   1.402       .  A
C438        C439   1.400       .  A
C438       Br454   1.919       .  S
C439        C440   1.405       .  A
C439        H443   1.083       .  S
C440        C441   1.409       .  A
C440        C444   1.480       .  S
C441        C442   1.397       .  A
C441       Br453   1.919       .  S
C442        H445   1.083       .  S
C444        C446   1.402       .  A
C444        C450   1.408       .  A
C446        C447   1.401       .  A
C446        H451   1.083       .  S
C447        C448   1.415       .  A
C447       Br455   1.919       .  S
C448        C449   1.407       .  A
C449        C450   1.399       .  A
C449        H452   1.083       .  S
C450       Br456   1.920       .  S
C457        C458   1.412       .  A
C457        C462   1.404       .  A
C458        C459   1.399       .  A
C458       Br474   1.920       .  S
C459        C460   1.402       .  A
C459        H463   1.083       .  S
C460        C461   1.408       .  A
C460        C464   1.479       .  S
C461        C462   1.400       .  A
C461       Br473   1.918       .  S
C462        H465   1.083       .  S
C464        C466   1.403       .  A
C464        C470   1.407       .  A
C466        C467   1.401       .  A
C466        H471   1.083       .  S
C467        C468   1.412       .  A
C467       Br475   1.920       .  S
C468        C469   1.404       .  A
C469        C470   1.398       .  A
C469        H472   1.083       .  S
C470       Br476   1.918       .  S
C477        C478   1.411       .  A
C477        C482   1.407       .  A
C478        C479   1.398       .  A
C478       Br494   1.920       .  S
C479        C480   1.402       .  A
C479        H483   1.083       .  S
C480        C481   1.406       .  A
C480        C484   1.477       .  S
C481        C482   1.399       .  A
C481       Br493   1.919       .  S
C482        H485   1.083       .  S
C484        C486   1.404       .  A
C484        C490   1.407       .  A
C486        C487   1.401       .  A
C486        H491   1.083       .  S
C487        C488   1.410       .  A
C487       Br495   1.919       .  S
C488        C489   1.402       .  A
C489        C490   1.396       .  A
C489        H492   1.084       .  S
C490       Br496   1.919       .  S
C497        C498   1.415       .  A
C497        C502   1.407       .  A
C498        C499   1.401       .  A
C498       Br514   1.921       .  S
C499        C500   1.402       .  A
C499        H503   1.084       .  S
C500        C501   1.405       .  A
C500        C504   1.478       .  S
C501        C502   1.399       .  A
C501       Br513   1.919       .  S
C502        H505   1.083       .  S
C504        C506   1.402       .  A
C504        C510   1.408       .  A
C506        C507   1.399       .  A
C506        H511   1.083       .  S
C507        C508   1.408       .  A
C507       Br515   1.917       .  S
C508        C509   1.403       .  A
C509        C510   1.400       .  A
C509        H512   1.083       .  S
C510       Br516   1.918       .  S
C517        C518   1.414       .  A
C517        C522   1.406       .  A
C518        C519   1.403       .  A
C518       Br534   1.920       .  S
C519        C520   1.402       .  A
C519        H523   1.083       .  S
C520        C521   1.406       .  A
C520        C524   1.480       .  S
C521        C522   1.399       .  A
C521       Br533   1.918       .  S
C522        H525   1.084       .  S
C524        C526   1.403       .  A
C524        C530   1.408       .  A
C526        C527   1.401       .  A
C526        H531   1.083       .  S
C527        C528   1.408       .  A
C527       Br535   1.917       .  S
C528        C529   1.403       .  A
C529        C530   1.401       .  A
C529        H532   1.083       .  S
C530       Br536   1.918       .  S
C537        C538   1.412       .  A
C537        C542   1.404       .  A
C538        C539   1.400       .  A
C538       Br554   1.920       .  S
C539        C540   1.401       .  A
C539        H543   1.083       .  S
C540        C541   1.406       .  A
C540        C544   1.475       .  S
C541        C542   1.397       .  A
C541       Br553   1.918       .  S
C542        H545   1.083       .  S
C544        C546   1.398       .  A
C544        C550   1.404       .  A
C546        C547   1.398       .  A
C546        H551   1.084       .  S
C547        C548   1.421       .  A
C547       Br555   1.923       .  S
C548        C549   1.409       .  A
C549        C550   1.399       .  A
C549        H552   1.083       .  S
C550       Br556   1.918       .  S
C557        C558   1.410       .  A
C557        C562   1.402       .  A
C558        C559   1.399       .  A
C558       Br574   1.919       .  S
C559        C560   1.403       .  A
C559        H563   1.084       .  S
C560        C561   1.409       .  A
C560        C564   1.479       .  S
C561        C562   1.398       .  A
C561       Br573   1.919       .  S
C562        H565   1.084       .  S
C564        C566   1.402       .  A
C564        C570   1.409       .  A
C566        C567   1.397       .  A
C566        H571   1.083       .  S
C567        C568   1.411       .  A
C567       Br575   1.919       .  S
C568        C569   1.405       .  A
C569        C570   1.399       .  A
C569        H572   1.083       .  S
C570       Br576   1.919       .  S
C577        C578   1.409       .  A
C577        C582   1.404       .  A
C578        C579   1.400       .  A
C578       Br594   1.919       .  S
C579        C580   1.403       .  A
C579        H583   1.083       .  S
C580        C581   1.409       .  A
C580        C584   1.482       .  S
C581        C582   1.401       .  A
C581       Br593   1.918       .  S
C582        H585   1.083       .  S
C584        C586   1.401       .  A
C584        C590   1.405       .  A
C586        C587   1.402       .  A
C586        H591   1.084       .  S
C587        C588   1.420       .  A
C587       Br595   1.921       .  S
C588        C589   1.411       .  A
C589        C590   1.399       .  A
C589        H592   1.083       .  S
C590       Br596   1.919       .  S
C597        C598   1.418       .  A
C597        C602   1.408       .  A
C598        C599   1.401       .  A
C598       Br614   1.920       .  S
C599        C600   1.400       .  A
C599        H603   1.084       .  S
C600        C601   1.404       .  A
C600        C604   1.476       .  S
C601        C602   1.398       .  A
C601       Br613   1.918       .  S
C602        H605   1.083       .  S
C604        C606   1.402       .  A
C604        C610   1.407       .  A
C606        C607   1.399       .  A
C606        H611   1.083       .  S
C607        C608   1.409       .  A
C607       Br615   1.919       .  S
C608        C609   1.403       .  A
C609        C610   1.400       .  A
C609        H612   1.083       .  S
C610       Br616   1.918       .  S
C617        C618   1.410       .  A
C617        C622   1.404       .  A
C618        C619   1.398       .  A
C618       Br634   1.920       .  S
C619        C620   1.403       .  A
C619        H623   1.084       .  S
C620        C621   1.409       .  A
C620        C624   1.479       .  S
C621        C622   1.398       .  A
C621       Br633   1.920       .  S
C622        H625   1.083       .  S
C624        C626   1.401       .  A
C624        C630   1.408       .  A
C626        C627   1.397       .  A
C626        H631   1.084       .  S
C627        C628   1.415       .  A
C627       Br635   1.922       .  S
C628        C629   1.406       .  A
C629        C630   1.400       .  A
C629        H632   1.083       .  S
C630       Br636   1.919       .  S
