geometry optimzed in LAMMPS
_audit_creation_date              2020-12-01 
_audit_creation_method            'lammps2cif' 
_symmetry_space_group_name_H-M    'P1' 
_symmetry_Int_Tables_number       1 
_symmetry_cell_setting            triclinic 
loop_ 
_symmetry_equiv_pos_as_xyz 
  x,y,z 
_cell_length_a                    36.06113667 
_cell_length_b                    35.917576863120836 
_cell_length_c                    29.734962662410897 
_cell_angle_alpha                 90.44052629639967 
_cell_angle_beta                  90.33761431414845 
_cell_angle_gamma                 91.83804188239476 
loop_ 
_atom_site_label 
_atom_site_type_symbol 
_atom_site_fract_x 
_atom_site_fract_y 
_atom_site_fract_z 
_atom_site_charge 
C1          C  0.26399417  0.37446172  0.87177331     0.88500
C2          C  0.22832316  0.37436950  0.84228682    -0.51700
C3          C  0.22244790  0.34187783  0.81856368     0.11500
C4          C  0.25234167  0.31325051  0.82609207     0.22400
C5          C  0.25991032  0.33932153  0.90132292    -0.52400
C6          C  0.25391044  0.30737752  0.87691173     0.11600
C7          C  0.29531904  0.36585061  0.83886626    -0.52000
C8          C  0.28886183  0.33384332  0.81521365     0.12100
H9          H  0.20992607  0.39764319  0.84023271     0.16600
H10         H  0.24774628  0.28700519  0.80642689     0.02400
H11         H  0.26264132  0.33965614  0.93772402     0.16900
H12         H  0.32029503  0.38319868  0.83484600     0.16700
C13         C  0.36418514  0.23512736  0.66582547     0.88500
C14         C  0.35834486  0.20096445  0.69683511    -0.51700
C15         C  0.32788965  0.20337103  0.72369645     0.11500
C16         C  0.30622436  0.23877158  0.71687478     0.22400
C17         C  0.32730494  0.23785129  0.63936717    -0.52400
C18         C  0.29707536  0.23967052  0.66666683     0.11600
C19         C  0.36536090  0.26888180  0.69804047    -0.52000
C20         C  0.33474735  0.27057858  0.72415743     0.12100
H21         H  0.37699565  0.17785502  0.69829916     0.16600
H22         H  0.28148105  0.24065714  0.73887854     0.02400
H23         H  0.32544250  0.23856118  0.60291830     0.16900
H24         H  0.38794249  0.28961088  0.69967193     0.16700
C25         C  0.23771069  0.13084955  0.88647329     0.88500
C26         C  0.27062523  0.12840814  0.85327756    -0.51700
C27         C  0.27411178  0.15866085  0.82584220     0.11500
C28         C  0.24492792  0.18784889  0.83363413     0.22400
C29         C  0.24401007  0.16838565  0.91168237    -0.52400
C30         C  0.24763173  0.19806142  0.88351075     0.11600
C31         C  0.20359528  0.13662415  0.85621038    -0.52000
C32         C  0.20788264  0.16649180  0.82865903     0.12100
H33         H  0.28883182  0.10495869  0.85134116     0.16600
H34         H  0.24772724  0.21226301  0.81092707     0.02400
H35         H  0.24450778  0.17119329  0.94807654     0.16900
H36         H  0.17871162  0.11877255  0.85630425     0.16700
C37         C  0.12180179  0.25168804  0.67540910     0.88500
C38         C  0.12743411  0.28773772  0.70415422    -0.51700
C39         C  0.15993161  0.28853876  0.72842043     0.11500
C40         C  0.18304116  0.25396047  0.72199309     0.22400
C41         C  0.15715716  0.24951162  0.64644025    -0.52400
C42         C  0.18909387  0.25073158  0.67128744     0.11600
C43         C  0.12475676  0.21973231  0.70927778    -0.52000
C44         C  0.15676403  0.22126322  0.73343745     0.12100
H45         H  0.10769392  0.30990641  0.70544184     0.16600
H46         H  0.20922264  0.25457290  0.74202011     0.02400
H47         H  0.15681557  0.24647310  0.61006681     0.16900
H48         H  0.10351962  0.19797310  0.71385107     0.16700
C49         C  0.36764947  0.26439848  0.38022347     0.88500
C50         C  0.36434538  0.29805889  0.34838214    -0.51700
C51         C  0.33318265  0.29618910  0.32214033     0.11500
C52         C  0.30836354  0.26159038  0.33010474     0.22400
C53         C  0.33109682  0.26341801  0.40724020    -0.52400
C54         C  0.30016073  0.26205291  0.38048406     0.11600
C55         C  0.36498092  0.22993614  0.34903423    -0.52000
C56         C  0.33364361  0.22866720  0.32329211     0.12100
H57         H  0.38476978  0.32087861  0.34653788     0.16600
H58         H  0.28299534  0.26022892  0.30858072     0.02400
H59         H  0.32991896  0.26401241  0.44372424     0.16900
H60         H  0.38550247  0.20847617  0.34792788     0.16700
C61         C  0.24477474  0.37693218  0.16629578     0.88500
C62         C  0.27890641  0.37712016  0.19829523    -0.51700
C63         C  0.27919228  0.34677049  0.22573847     0.11500
C64         C  0.24600507  0.31980317  0.21919125     0.22400
C65         C  0.24541521  0.33907221  0.14107852    -0.52400
C66         C  0.24607577  0.30931762  0.16935204     0.11600
C67         C  0.21102187  0.37361342  0.19757801    -0.52000
C68         C  0.21211902  0.34368610  0.22508948     0.12100
H69         H  0.30043428  0.39895866  0.19909822     0.17800
H70         H  0.24628584  0.29536220  0.24197723     0.02400
H71         H  0.24504133  0.33620708  0.10469266     0.16900
H72         H  0.18861279  0.39311011  0.19816776     0.16700
C73         C  0.12325158  0.26154797  0.38035841     0.88500
C74         C  0.12412967  0.22603382  0.35039936    -0.51700
C75         C  0.15535404  0.22470556  0.32454655     0.11500
C76         C  0.18197171  0.25832942  0.33050744     0.22400
C77         C  0.16004909  0.26191020  0.40748230    -0.52400
C78         C  0.19067238  0.26018260  0.38081819     0.11600
C79         C  0.12771855  0.29412156  0.34735794    -0.52000
C80         C  0.15838998  0.29203861  0.32146853     0.12100
H81         H  0.10241653  0.20438333  0.34979551     0.16600
H82         H  0.20709201  0.25722526  0.30901938     0.02400
H83         H  0.16161985  0.26373249  0.44391862     0.16900
H84         H  0.10837904  0.31657372  0.34448852     0.16700
C85         C  0.24334918  0.13186173  0.17835224     0.88500
C86         C  0.20895229  0.13554038  0.20884753    -0.51700
C87         C  0.20961835  0.16760357  0.23378846     0.11500
C88         C  0.24390943  0.19282699  0.22597752     0.22400
C89         C  0.24442774  0.16771976  0.14986474    -0.52400
C90         C  0.24462642  0.19953308  0.17527431     0.11600
C91         C  0.27686518  0.13603622  0.21059870    -0.52000
C92         C  0.27695394  0.16824515  0.23503453     0.12100
H93         H  0.18646274  0.11476770  0.21065785     0.16600
H94         H  0.24432514  0.21893410  0.24640136     0.02400
H95         H  0.24482918  0.16782163  0.11334851     0.16900
H96         H  0.29857022  0.11588664  0.21328760     0.16700
O97         O  0.22762756  0.04363037  0.99167115    -0.69700
O98         O  0.23960874  0.46771697  0.06802514    -0.70000
O99         O  0.23481464  0.04273227  0.08157856    -0.69800
O100        O  0.23026156  0.46882217  0.97898122    -0.69800
O101        O  0.28954316  0.46554763  0.96750739    -0.69800
O102        O  0.29458076  0.03907752  0.07539517    -0.69800
O103        O  0.29846066  0.46083677  0.05651015    -0.69700
O104        O  0.28752257  0.04036752  0.98634404    -0.69900
V105        V  0.22883243  0.00561937  0.03670354     1.35200
V106        V  0.28615486  0.00214506  0.02928709     1.35200
C107        C  0.25800478  0.05541814  0.97468159     0.79500
C108        C  0.26918347  0.45075748  0.07644798     0.79600
C109        C  0.26688678  0.05409928  0.09332869     0.79400
C110        C  0.25657503  0.45418754  0.95853761     0.79400
O111        O  0.03210255  0.23250317  0.57835719    -0.69700
O112        O  0.45776221  0.21555019  0.48751647    -0.70000
O113        O  0.03311628  0.21733541  0.49014630    -0.69800
O114        O  0.45731460  0.22895252  0.57567909    -0.69800
O115        O  0.45697973  0.28841596  0.56294389    -0.69800
O116        O  0.03311722  0.27653674  0.47562971    -0.69800
O117        O  0.45839198  0.27503027  0.47475915    -0.69700
O118        O  0.03242445  0.29169443  0.56375576    -0.69900
V119        V  0.99513372  0.22473784  0.53261939     1.35200
V120        V  0.99525661  0.28177516  0.51961430     1.35200
C121        C  0.04542208  0.26514365  0.58565530     0.79500
C122        C  0.44470667  0.24291698  0.46665721     0.79600
C123        C  0.04647636  0.24475273  0.46881178     0.79400
C124        C  0.44338717  0.26014109  0.58299051     0.79400
C125        C  0.24237586  0.09651025  0.15041891    -0.14400
C126        C  0.27127119  0.08548880  0.12555738    -0.29600
H127        H  0.21659945  0.07996773  0.14963910     0.14600
H128        H  0.29767780  0.10086758  0.12725327     0.15200
C129        C  0.18141182  0.17822352  0.26542890    -0.11200
C130        C  0.16443744  0.19540852  0.29324490    -0.12800
C131        C  0.07786866  0.23926091  0.43815663    -0.14400
C132        C  0.08910415  0.26539006  0.40899663    -0.29600
H133        H  0.09252034  0.21334712  0.44009477     0.14600
H134        H  0.07352662  0.29070799  0.40632455     0.15200
C135        C  0.24591823  0.27059453  0.15586473    -0.11200
C136        C  0.24544941  0.23701271  0.15790955    -0.12800
C137        C  0.18474419  0.33434673  0.25802266    -0.11200
C138        C  0.16855155  0.31845830  0.28764272    -0.12800
C139        C  0.27053367  0.41924404  0.10773029    -0.14400
C140        C  0.24285499  0.41021297  0.13572195    -0.29600
H141        H  0.29539267  0.40290814  0.10792955     0.14600
H142        H  0.21837281  0.42708698  0.13646256     0.15200
C143        C  0.26226487  0.26139321  0.39610653    -0.11200
C144        C  0.22874990  0.26085535  0.39631241    -0.12800
C145        C  0.32315852  0.19893451  0.29283187    -0.11200
C146        C  0.30562505  0.18022728  0.26605525    -0.12800
C147        C  0.32331084  0.32327456  0.28876577    -0.11200
C148        C  0.30706306  0.33902781  0.25919027    -0.12800
C149        C  0.40219670  0.26653299  0.40924384    -0.14400
C150        C  0.41303277  0.23815816  0.43515219    -0.29600
H151        H  0.41864646  0.29242688  0.40920312     0.14600
H152        H  0.39752298  0.21172961  0.43445243     0.15200
C153        C  0.08624836  0.24783698  0.64825953    -0.14400
C154        C  0.07672695  0.27250954  0.61709052    -0.29600
H155        H  0.06872218  0.22294846  0.65263390     0.14600
H156        H  0.09322677  0.29812810  0.61336339     0.15200
C157        C  0.18102935  0.17803383  0.79646422    -0.11200
C158        C  0.16592890  0.19494350  0.76735139    -0.12800
C159        C  0.26073361  0.08693601  0.94337003    -0.14400
C160        C  0.23270922  0.09786209  0.91747950    -0.29600
H161        H  0.28763368  0.10125169  0.94055985     0.14600
H162        H  0.20612571  0.08276959  0.91855069     0.15200
C163        C  0.22601675  0.24701825  0.65360370    -0.11200
C164        C  0.25916392  0.24348774  0.65197341    -0.12800
C165        C  0.31711504  0.17735149  0.75854768    -0.11200
C166        C  0.30086167  0.16367385  0.79013982    -0.12800
C167        C  0.41099240  0.26288080  0.61275332    -0.14400
C168        C  0.39815274  0.23339017  0.63655705    -0.29600
H169        H  0.39689515  0.28913453  0.61442085     0.14600
H170        H  0.41293608  0.20750037  0.63564878     0.15200
C171        C  0.25071830  0.23666301  0.89724698    -0.11200
C172        C  0.25223385  0.27021510  0.89508723    -0.12800
C173        C  0.19215872  0.33377384  0.78727554    -0.11200
C174        C  0.17278553  0.31755901  0.75950744    -0.12800
C175        C  0.31396848  0.31912232  0.78319624    -0.11200
C176        C  0.32811967  0.29980004  0.75562787    -0.12800
C177        C  0.27242314  0.40964104  0.89854952    -0.14400
C178        C  0.24782852  0.42312990  0.92729690    -0.29600
H179        H  0.29956235  0.42344065  0.89560278     0.14600
H180        H  0.22033216  0.40993696  0.92917676     0.15200
C181        C  0.25607174  0.87922762  0.88001436     0.88500
C182        C  0.21979909  0.87754532  0.85149579    -0.51700
C183        C  0.21608921  0.84584221  0.82565793     0.11500
C184        C  0.24831706  0.81948071  0.83066175     0.22400
C185        C  0.25546404  0.84273005  0.90723676    -0.52400
C186        C  0.25145811  0.81159453  0.88097210     0.11600
C187        C  0.28728446  0.87468179  0.84564162    -0.52000
C188        C  0.28284066  0.84341820  0.82009416     0.12100
H189        H  0.19974760  0.89944868  0.85113419     0.16600
H190        H  0.24546598  0.79388357  0.80944483     0.02400
H191        H  0.25912354  0.84169109  0.94348761     0.16900
H192        H  0.31075465  0.89413078  0.84200235     0.16700
C193        C  0.36901561  0.75862671  0.66662599     0.88500
C194        C  0.36837512  0.72387413  0.69741500    -0.51700
C195        C  0.33735353  0.72118287  0.72369270     0.11500
C196        C  0.31066756  0.75295425  0.71723303     0.22400
C197        C  0.33202965  0.75607961  0.63993912    -0.52400
C198        C  0.30159632  0.75331550  0.66699942     0.11600
C199        C  0.36477682  0.79174976  0.69900285    -0.52000
C200        C  0.33429845  0.78837686  0.72523475     0.12100
H201        H  0.39034854  0.70393730  0.69868743     0.16600
H202        H  0.28571054  0.75096994  0.73903255     0.02400
H203        H  0.33016105  0.75790581  0.60356148     0.16900
H204        H  0.38397881  0.81565156  0.70099942     0.16700
C205        C  0.25050424  0.63479353  0.87906827     0.88500
C206        C  0.28432740  0.63615610  0.84693793    -0.51700
C207        C  0.28642281  0.66786787  0.82172899     0.11500
C208        C  0.25503233  0.69451762  0.83042917     0.22400
C209        C  0.25375927  0.67130919  0.90696901    -0.52400
C210        C  0.25597758  0.70243475  0.88094933     0.11600
C211        C  0.21669449  0.63979004  0.84818169    -0.52000
C212        C  0.21950944  0.67104995  0.82290884     0.12100
H213        H  0.30414690  0.61414810  0.84412161     0.16600
H214        H  0.25657373  0.72008695  0.80952509     0.02400
H215        H  0.25302703  0.67237355  0.94346442     0.16900
H216        H  0.19286498  0.62053898  0.84644057     0.16700
C217        C  0.12558962  0.75412552  0.67477479     0.88500
C218        C  0.12779084  0.78955286  0.70513779    -0.51700
C219        C  0.16008133  0.79264155  0.72972925     0.11500
C220        C  0.18638871  0.76068126  0.72190962     0.22400
C221        C  0.16120214  0.75599388  0.64605568    -0.52400
C222        C  0.19292059  0.75926872  0.67117805     0.11600
C223        C  0.13134103  0.72169506  0.70728782    -0.52000
C224        C  0.16309345  0.72551664  0.73173165     0.12100
H225        H  0.10586644  0.80947770  0.70754704     0.16600
H226        H  0.21241852  0.76302547  0.74215588     0.02400
H227        H  0.16126965  0.75341277  0.60963653     0.16900
H228        H  0.11220086  0.69791496  0.71063971     0.16700
C229        C  0.37339914  0.75968530  0.37622795     0.88500
C230        C  0.36692749  0.79453774  0.34726728    -0.51700
C231        C  0.33566599  0.79141909  0.32129898     0.11500
C232        C  0.31391995  0.75450672  0.32656041     0.22400
C233        C  0.33721591  0.75412820  0.40339031    -0.52400
C234        C  0.30617057  0.75163881  0.37691530     0.11600
C235        C  0.37337174  0.72696972  0.34233575    -0.52000
C236        C  0.34192255  0.72440779  0.31679002     0.12100
H237        H  0.38518307  0.81918541  0.34739979     0.16600
H238        H  0.28845575  0.75221369  0.30526179     0.02400
H239        H  0.33630214  0.75299082  0.43985423     0.16900
H240        H  0.39572932  0.70757957  0.33926697     0.16700
C241        C  0.23705868  0.87402553  0.17679853     0.88500
C242        C  0.27131487  0.87507845  0.20854822    -0.51700
C243        C  0.27407725  0.84356531  0.23353770     0.11500
C244        C  0.24281938  0.81461760  0.22529204     0.22400
C245        C  0.24030747  0.83774405  0.14885213    -0.52400
C246        C  0.24327618  0.80681446  0.17481442     0.11600
C247        C  0.20362433  0.86651888  0.20791156    -0.52000
C248        C  0.20708745  0.83531374  0.23312196     0.12100
H249        H  0.29147806  0.89815175  0.21053002     0.17800
H250        H  0.24516615  0.78914399  0.24608336     0.02400
H251        H  0.23993259  0.83670273  0.11234037     0.16900
H252        H  0.17962087  0.88396070  0.20964729     0.16700
C253        C  0.12936890  0.73531749  0.38222970     0.88500
C254        C  0.13435119  0.70105855  0.35109799    -0.51700
C255        C  0.16454583  0.70473719  0.32373052     0.11500
C256        C  0.18672434  0.74135440  0.33001055     0.22400
C257        C  0.16670649  0.74002826  0.40788734    -0.52400
C258        C  0.19661203  0.74291730  0.38001363     0.11600
C259        C  0.12825562  0.76871122  0.35002251    -0.52000
C260        C  0.15857917  0.77175732  0.32326956     0.12100
H261        H  0.11580286  0.67663351  0.35058313     0.16600
H262        H  0.21126367  0.74410164  0.30760547     0.02400
H263        H  0.16916646  0.74038129  0.44430542     0.16900
H264        H  0.10593869  0.78828694  0.34889366     0.16700
C265        C  0.25585979  0.63015184  0.16596823     0.88500
C266        C  0.22306611  0.62798637  0.19927677    -0.51700
C267        C  0.22199210  0.65794444  0.22761063     0.11500
C268        C  0.25333303  0.68691312  0.22042880     0.22400
C269        C  0.25193246  0.66777933  0.14194819    -0.52400
C270        C  0.25078337  0.69733133  0.17081613     0.11600
C271        C  0.29077577  0.63528974  0.19611926    -0.52000
C272        C  0.28900671  0.66526841  0.22433678     0.12100
H273        H  0.20252297  0.60520981  0.19991943     0.16600
H274        H  0.25232041  0.71127412  0.24369231     0.02400
H275        H  0.25035663  0.67067912  0.10565926     0.16900
H276        H  0.31433026  0.61727282  0.19574284     0.16700
O277        O  0.24014886  0.54384023  0.97842202    -0.69700
O278        O  0.22869882  0.96768941  0.08170469    -0.70000
O279        O  0.24741641  0.54236330  0.06797240    -0.69800
O280        O  0.21956003  0.96849156  0.99250830    -0.69800
O281        O  0.27906345  0.96549572  0.98262452    -0.69800
O282        O  0.30692433  0.53561901  0.06383511    -0.69800
O283        O  0.28812105  0.96366075  0.07199615    -0.69700
O284        O  0.30012048  0.54047480  0.97466042    -0.69900
V285        V  0.24049641  0.50562923  0.02311556     1.35200
V286        V  0.29763321  0.50070792  0.01566280     1.35200
C287        C  0.27089394  0.55602659  0.96284047     0.79500
C288        C  0.25888371  0.95214745  0.09102998     0.79600
C289        C  0.27962198  0.55148670  0.08156027     0.79400
C290        C  0.24632180  0.95404709  0.97268696     0.79400
O291        O  0.04004556  0.73116515  0.57265193    -0.69700
O292        O  0.46782537  0.71353257  0.47942623    -0.70000
O293        O  0.04206644  0.72647398  0.48246233    -0.69800
O294        O  0.46598099  0.71633362  0.56875043    -0.69800
O295        O  0.45640362  0.77569662  0.56559999    -0.69800
O296        O  0.03449653  0.78618805  0.47972844    -0.69800
O297        O  0.46034196  0.77320048  0.47562021    -0.69700
O298        O  0.03046944  0.79049605  0.56895549    -0.69900
V299        V  0.00392159  0.72305710  0.52580807     1.35200
V300        V  0.99551656  0.78021881  0.52255547     1.35200
C301        C  0.04795654  0.76420385  0.58587220     0.79500
C302        C  0.45133614  0.74069451  0.46230893     0.79600
C303        C  0.05180669  0.75786630  0.46697534     0.79400
C304        C  0.44751560  0.74375551  0.58091290     0.79400
C305        C  0.25474518  0.59794704  0.13301788    -0.14400
C306        C  0.28453879  0.58049890  0.11680466    -0.29600
H307        H  0.22746718  0.59079648  0.11911493     0.14600
H308        H  0.31242629  0.58832462  0.12782581     0.15200
C309        C  0.19401781  0.66374758  0.26132137    -0.11200
C310        C  0.17619005  0.67783148  0.29080094    -0.12800
C311        C  0.08346595  0.76145075  0.43593718    -0.14400
C312        C  0.09597835  0.73205244  0.41269429    -0.29600
H313        H  0.09684483  0.78876100  0.43213573     0.14600
H314        H  0.08142013  0.70518324  0.41510252     0.15200
C315        C  0.24573453  0.76910905  0.15839906    -0.11200
C316        C  0.24787392  0.73567150  0.15755374    -0.12800
C317        C  0.18008252  0.82106058  0.26433280    -0.11200
C318        C  0.16538087  0.80124501  0.29178333    -0.12800
C319        C  0.26111509  0.92025083  0.12171682    -0.14400
C320        C  0.23331290  0.90843665  0.14826407    -0.29600
H321        H  0.28692374  0.90541645  0.12207251     0.14600
H322        H  0.20767949  0.92351470  0.14911790     0.15200
C323        C  0.26848480  0.74818973  0.39299767    -0.11200
C324        C  0.23501200  0.74584886  0.39411681    -0.12800
C325        C  0.33380863  0.69585318  0.28372856    -0.11200
C326        C  0.31759460  0.67743481  0.25546169    -0.12800
C327        C  0.32245734  0.81969163  0.29146229    -0.11200
C328        C  0.30364101  0.83587182  0.26470991    -0.12800
C329        C  0.40781810  0.76333177  0.40537296    -0.14400
C330        C  0.42094366  0.73480288  0.42923608    -0.29600
H331        H  0.42183533  0.79052789  0.40777816     0.14600
H332        H  0.40804295  0.70716773  0.42588317     0.15200
C333        C  0.09062310  0.74770864  0.64703269    -0.14400
C334        C  0.07826041  0.77293412  0.61822659    -0.29600
H335        H  0.07607868  0.72078696  0.64890583     0.14600
H336        H  0.09149996  0.80051435  0.61738740     0.15200
C337        C  0.19194316  0.68238654  0.79161866    -0.11200
C338        C  0.17495161  0.69903334  0.76396145    -0.12800
C339        C  0.27413199  0.58868782  0.93328729    -0.14400
C340        C  0.24634692  0.60013787  0.90744181    -0.29600
H341        H  0.30080423  0.60362312  0.93223619     0.14600
H342        H  0.22017439  0.58424794  0.90687731     0.15200
C343        C  0.23014614  0.75731961  0.65378693    -0.11200
C344        C  0.26345117  0.75497630  0.65225622    -0.12800
C345        C  0.32941767  0.69298499  0.75724431    -0.11200
C346        C  0.31375790  0.67660433  0.78750000    -0.12800
C347        C  0.41552083  0.73744303  0.61081714    -0.14400
C348        C  0.40291716  0.76425022  0.63749484    -0.29600
H349        H  0.40236914  0.70980546  0.61146824     0.14600
H350        H  0.41756270  0.79119690  0.63822305     0.15200
C351        C  0.25537908  0.74036172  0.89717322    -0.11200
C352        C  0.25356036  0.77384327  0.89684360    -0.12800
C353        C  0.18677034  0.83721154  0.79313386    -0.11200
C354        C  0.16955265  0.82099069  0.76335072    -0.12800
C355        C  0.30830536  0.83231888  0.78640105    -0.11200
C356        C  0.32393094  0.81552619  0.75767095    -0.12800
C357        C  0.26264533  0.91357118  0.90897057    -0.14400
C358        C  0.23848891  0.92344838  0.94042721    -0.29600
H359        H  0.28842707  0.92978239  0.90537985     0.14600
H360        H  0.21207177  0.90820091  0.94298784     0.15200
C361        C  0.76399419  0.37446172  0.87177330     0.88500
C362        C  0.72832317  0.37436950  0.84228682    -0.51700
C363        C  0.72244788  0.34187782  0.81856370     0.11500
C364        C  0.75234168  0.31325051  0.82609207     0.22400
C365        C  0.75991034  0.33932154  0.90132292    -0.52400
C366        C  0.75391047  0.30737751  0.87691172     0.11600
C367        C  0.79531907  0.36585061  0.83886626    -0.52000
C368        C  0.78886184  0.33384333  0.81521364     0.12100
H369        H  0.70992610  0.39764321  0.84023268     0.16600
H370        H  0.74774628  0.28700519  0.80642689     0.02400
H371        H  0.76264130  0.33965615  0.93772401     0.16900
H372        H  0.82029506  0.38319867  0.83484601     0.16700
C373        C  0.86418509  0.23512736  0.66582547     0.88500
C374        C  0.85834480  0.20096444  0.69683513    -0.51700
C375        C  0.82788955  0.20337102  0.72369643     0.11500
C376        C  0.80622432  0.23877159  0.71687476     0.22400
C377        C  0.82730491  0.23785128  0.63936716    -0.52400
C378        C  0.79707532  0.23967053  0.66666682     0.11600
C379        C  0.86536083  0.26888178  0.69804044    -0.52000
C380        C  0.83474732  0.27057857  0.72415743     0.12100
H381        H  0.87699558  0.17785503  0.69829925     0.16600
H382        H  0.78148098  0.24065718  0.73887857     0.02400
H383        H  0.82544250  0.23856116  0.60291827     0.16900
H384        H  0.88794246  0.28961094  0.69967187     0.16700
C385        C  0.73771067  0.13084955  0.88647330     0.88500
C386        C  0.77062520  0.12840814  0.85327757    -0.51700
C387        C  0.77411174  0.15866083  0.82584220     0.11500
C388        C  0.74492791  0.18784889  0.83363413     0.22400
C389        C  0.74401005  0.16838565  0.91168237    -0.52400
C390        C  0.74763175  0.19806142  0.88351075     0.11600
C391        C  0.70359527  0.13662415  0.85621038    -0.52000
C392        C  0.70788263  0.16649181  0.82865904     0.12100
H393        H  0.78883180  0.10495871  0.85134123     0.16600
H394        H  0.74772727  0.21226301  0.81092708     0.02400
H395        H  0.74450774  0.17119330  0.94807655     0.16900
H396        H  0.67871159  0.11877255  0.85630421     0.16700
C397        C  0.62180178  0.25168803  0.67540911     0.88500
C398        C  0.62743409  0.28773771  0.70415421    -0.51700
C399        C  0.65993158  0.28853877  0.72842042     0.11500
C400        C  0.68304117  0.25396049  0.72199310     0.22400
C401        C  0.65715714  0.24951162  0.64644026    -0.52400
C402        C  0.68909385  0.25073158  0.67128743     0.11600
C403        C  0.62475677  0.21973230  0.70927779    -0.52000
C404        C  0.65676404  0.22126322  0.73343745     0.12100
H405        H  0.60769389  0.30990641  0.70544183     0.16600
H406        H  0.70922262  0.25457293  0.74202005     0.02400
H407        H  0.65681548  0.24647310  0.61006681     0.16900
H408        H  0.60351963  0.19797308  0.71385108     0.16700
C409        C  0.86764945  0.26439848  0.38022348     0.88500
C410        C  0.86434539  0.29805889  0.34838213    -0.51700
C411        C  0.83318267  0.29618910  0.32214032     0.11500
C412        C  0.80836355  0.26159038  0.33010473     0.22400
C413        C  0.83109679  0.26341800  0.40724019    -0.52400
C414        C  0.80016070  0.26205291  0.38048404     0.11600
C415        C  0.86498094  0.22993614  0.34903424    -0.52000
C416        C  0.83364364  0.22866720  0.32329211     0.12100
H417        H  0.88476981  0.32087860  0.34653789     0.16600
H418        H  0.78299536  0.26022891  0.30858068     0.02400
H419        H  0.82991890  0.26401241  0.44372422     0.16900
H420        H  0.88550250  0.20847618  0.34792790     0.16700
C421        C  0.74477471  0.37693218  0.16629578     0.88500
C422        C  0.77890641  0.37712018  0.19829523    -0.51700
C423        C  0.77919225  0.34677047  0.22573845     0.11500
C424        C  0.74600503  0.31980317  0.21919123     0.22400
C425        C  0.74541519  0.33907222  0.14107851    -0.52400
C426        C  0.74607571  0.30931762  0.16935203     0.11600
C427        C  0.71102182  0.37361342  0.19757800    -0.52000
C428        C  0.71211901  0.34368610  0.22508950     0.12100
H429        H  0.80043423  0.39895863  0.19909828     0.17800
H430        H  0.74628582  0.29536221  0.24197721     0.02400
H431        H  0.74504141  0.33620709  0.10469266     0.16900
H432        H  0.68861277  0.39311002  0.19816772     0.16700
C433        C  0.62325156  0.26154796  0.38035841     0.88500
C434        C  0.62412970  0.22603380  0.35039937    -0.51700
C435        C  0.65535406  0.22470556  0.32454656     0.11500
C436        C  0.68197168  0.25832945  0.33050742     0.22400
C437        C  0.66004907  0.26191023  0.40748229    -0.52400
C438        C  0.69067235  0.26018263  0.38081818     0.11600
C439        C  0.62771846  0.29412155  0.34735792    -0.52000
C440        C  0.65838991  0.29203860  0.32146849     0.12100
H441        H  0.60241657  0.20438330  0.34979552     0.16600
H442        H  0.70709198  0.25722533  0.30901937     0.02400
H443        H  0.66161987  0.26373250  0.44391860     0.16900
H444        H  0.60837896  0.31657364  0.34448854     0.16700
C445        C  0.74334923  0.13186173  0.17835224     0.88500
C446        C  0.70895234  0.13554038  0.20884753    -0.51700
C447        C  0.70961839  0.16760357  0.23378846     0.11500
C448        C  0.74390947  0.19282699  0.22597752     0.22400
C449        C  0.74442778  0.16771977  0.14986474    -0.52400
C450        C  0.74462643  0.19953308  0.17527431     0.11600
C451        C  0.77686522  0.13603622  0.21059870    -0.52000
C452        C  0.77695399  0.16824515  0.23503452     0.12100
H453        H  0.68646279  0.11476770  0.21065785     0.16600
H454        H  0.74432518  0.21893410  0.24640136     0.02400
H455        H  0.74482918  0.16782163  0.11334851     0.16900
H456        H  0.79857027  0.11588664  0.21328760     0.16700
O457        O  0.72762750  0.04363037  0.99167115    -0.69700
O458        O  0.73960870  0.46771697  0.06802514    -0.70000
O459        O  0.73481468  0.04273227  0.08157856    -0.69800
O460        O  0.73026154  0.46882215  0.97898121    -0.69800
O461        O  0.78954314  0.46554764  0.96750740    -0.69800
O462        O  0.79458081  0.03907752  0.07539516    -0.69800
O463        O  0.79846062  0.46083678  0.05651014    -0.69700
O464        O  0.78752250  0.04036753  0.98634405    -0.69900
V465        V  0.72883244  0.00561937  0.03670355     1.35200
V466        V  0.78615486  0.00214506  0.02928707     1.35200
C467        C  0.75800470  0.05541814  0.97468160     0.79500
C468        C  0.76918345  0.45075748  0.07644798     0.79600
C469        C  0.76688683  0.05409928  0.09332868     0.79400
C470        C  0.75657502  0.45418754  0.95853761     0.79400
O471        O  0.53210247  0.23250318  0.57835725    -0.69700
O472        O  0.95776224  0.21555020  0.48751648    -0.70000
O473        O  0.53311629  0.21733541  0.49014632    -0.69800
O474        O  0.95731463  0.22895253  0.57567913    -0.69800
O475        O  0.95697974  0.28841596  0.56294391    -0.69800
O476        O  0.53311723  0.27653674  0.47562971    -0.69800
O477        O  0.95839201  0.27503027  0.47475913    -0.69700
O478        O  0.53242446  0.29169442  0.56375573    -0.69900
V479        V  0.49513369  0.22473784  0.53261938     1.35200
V480        V  0.49525660  0.28177516  0.51961429     1.35200
C481        C  0.54542206  0.26514365  0.58565529     0.79500
C482        C  0.94470670  0.24291698  0.46665720     0.79600
C483        C  0.54647638  0.24475274  0.46881180     0.79400
C484        C  0.94338717  0.26014109  0.58299051     0.79400
C485        C  0.74237591  0.09651025  0.15041891    -0.14400
C486        C  0.77127123  0.08548880  0.12555738    -0.29600
H487        H  0.71659950  0.07996773  0.14963910     0.14600
H488        H  0.79767784  0.10086758  0.12725327     0.15200
C489        C  0.68141186  0.17822352  0.26542890    -0.11200
C490        C  0.66443749  0.19540853  0.29324490    -0.12800
C491        C  0.57786871  0.23926089  0.43815666    -0.14400
C492        C  0.58910416  0.26539005  0.40899663    -0.29600
H493        H  0.59252040  0.21334718  0.44009484     0.14600
H494        H  0.57352659  0.29070798  0.40632451     0.15200
C495        C  0.74591817  0.27059454  0.15586473    -0.11200
C496        C  0.74544930  0.23701271  0.15790954    -0.12800
C497        C  0.68474421  0.33434673  0.25802270    -0.11200
C498        C  0.66855152  0.31845831  0.28764274    -0.12800
C499        C  0.77053360  0.41924404  0.10773027    -0.14400
C500        C  0.74285496  0.41021298  0.13572196    -0.29600
H501        H  0.79539267  0.40290806  0.10792950     0.14600
H502        H  0.71837276  0.42708701  0.13646263     0.15200
C503        C  0.76226484  0.26139321  0.39610652    -0.11200
C504        C  0.72874986  0.26085536  0.39631241    -0.12800
C505        C  0.82315857  0.19893451  0.29283187    -0.11200
C506        C  0.80562510  0.18022728  0.26605525    -0.12800
C507        C  0.82331083  0.32327456  0.28876578    -0.11200
C508        C  0.80706299  0.33902781  0.25919032    -0.12800
C509        C  0.90219665  0.26653298  0.40924390    -0.14400
C510        C  0.91303278  0.23815816  0.43515220    -0.29600
H511        H  0.91864639  0.29242694  0.40920322     0.14600
H512        H  0.89752302  0.21172958  0.43445240     0.15200
C513        C  0.58624835  0.24783697  0.64825952    -0.14400
C514        C  0.57672695  0.27250951  0.61709049    -0.29600
H515        H  0.56872217  0.22294843  0.65263388     0.14600
H516        H  0.59322678  0.29812806  0.61336337     0.15200
C517        C  0.68102938  0.17803384  0.79646421    -0.11200
C518        C  0.66592895  0.19494350  0.76735138    -0.12800
C519        C  0.76073358  0.08693600  0.94337003    -0.14400
C520        C  0.73270921  0.09786209  0.91747950    -0.29600
H521        H  0.78763365  0.10125165  0.94055988     0.14600
H522        H  0.70612570  0.08276959  0.91855067     0.15200
C523        C  0.72601674  0.24701825  0.65360371    -0.11200
C524        C  0.75916390  0.24348775  0.65197341    -0.12800
C525        C  0.81711491  0.17735150  0.75854765    -0.11200
C526        C  0.80086161  0.16367384  0.79013983    -0.12800
C527        C  0.91099233  0.26288080  0.61275326    -0.14400
C528        C  0.89815270  0.23339017  0.63655706    -0.29600
H529        H  0.89689506  0.28913446  0.61442074     0.14600
H530        H  0.91293606  0.20750041  0.63564887     0.15200
C531        C  0.75071835  0.23666300  0.89724698    -0.11200
C532        C  0.75223389  0.27021510  0.89508723    -0.12800
C533        C  0.69215868  0.33377384  0.78727555    -0.11200
C534        C  0.67278545  0.31755902  0.75950747    -0.12800
C535        C  0.81396852  0.31912233  0.78319625    -0.11200
C536        C  0.82811969  0.29980003  0.75562789    -0.12800
C537        C  0.77242317  0.40964103  0.89854952    -0.14400
C538        C  0.74782858  0.42312991  0.92729688    -0.29600
H539        H  0.79956241  0.42344063  0.89560279     0.14600
H540        H  0.72033215  0.40993694  0.92917672     0.15200
C541        C  0.75607177  0.87922762  0.88001435     0.88500
C542        C  0.71979914  0.87754529  0.85149579    -0.51700
C543        C  0.71608924  0.84584221  0.82565790     0.11500
C544        C  0.74831710  0.81948071  0.83066175     0.22400
C545        C  0.75546408  0.84273005  0.90723676    -0.52400
C546        C  0.75145815  0.81159453  0.88097210     0.11600
C547        C  0.78728450  0.87468179  0.84564162    -0.52000
C548        C  0.78284070  0.84341820  0.82009416     0.12100
H549        H  0.69974760  0.89944870  0.85113423     0.16600
H550        H  0.74546603  0.79388356  0.80944482     0.02400
H551        H  0.75912359  0.84169109  0.94348761     0.16900
H552        H  0.81075469  0.89413078  0.84200236     0.16700
C553        C  0.86901565  0.75862671  0.66662599     0.88500
C554        C  0.86837517  0.72387413  0.69741501    -0.51700
C555        C  0.83735356  0.72118287  0.72369271     0.11500
C556        C  0.81066762  0.75295425  0.71723301     0.22400
C557        C  0.83202969  0.75607961  0.63993912    -0.52400
C558        C  0.80159634  0.75331550  0.66699942     0.11600
C559        C  0.86477686  0.79174976  0.69900285    -0.52000
C560        C  0.83429849  0.78837686  0.72523475     0.12100
H561        H  0.89034858  0.70393730  0.69868743     0.16600
H562        H  0.78571057  0.75096994  0.73903258     0.02400
H563        H  0.83016109  0.75790581  0.60356148     0.16900
H564        H  0.88397885  0.81565155  0.70099942     0.16700
C565        C  0.75050413  0.63479353  0.87906827     0.88500
C566        C  0.78432732  0.63615610  0.84693794    -0.51700
C567        C  0.78642276  0.66786786  0.82172897     0.11500
C568        C  0.75503231  0.69451761  0.83042917     0.22400
C569        C  0.75375915  0.67130919  0.90696901    -0.52400
C570        C  0.75597756  0.70243474  0.88094933     0.11600
C571        C  0.71669438  0.63979004  0.84818168    -0.52000
C572        C  0.71950941  0.67104996  0.82290884     0.12100
H573        H  0.80414683  0.61414814  0.84412172     0.16600
H574        H  0.75657373  0.72008694  0.80952510     0.02400
H575        H  0.75302684  0.67237355  0.94346441     0.16900
H576        H  0.69286489  0.62053907  0.84644054     0.16700
C577        C  0.62558963  0.75412552  0.67477478     0.88500
C578        C  0.62779085  0.78955286  0.70513777    -0.51700
C579        C  0.66008132  0.79264156  0.72972926     0.11500
C580        C  0.68638872  0.76068128  0.72190962     0.22400
C581        C  0.66120214  0.75599389  0.64605567    -0.52400
C582        C  0.69292060  0.75926873  0.67117804     0.11600
C583        C  0.63134106  0.72169506  0.70728782    -0.52000
C584        C  0.66309348  0.72551665  0.73173165     0.12100
H585        H  0.60586644  0.80947769  0.70754703     0.16600
H586        H  0.71241853  0.76302550  0.74215587     0.02400
H587        H  0.66126963  0.75341276  0.60963651     0.16900
H588        H  0.61220090  0.69791495  0.71063971     0.16700
C589        C  0.87339911  0.75968530  0.37622794     0.88500
C590        C  0.86692747  0.79453774  0.34726725    -0.51700
C591        C  0.83566597  0.79141910  0.32129896     0.11500
C592        C  0.81391990  0.75450673  0.32656041     0.22400
C593        C  0.83721590  0.75412821  0.40339032    -0.52400
C594        C  0.80617055  0.75163883  0.37691532     0.11600
C595        C  0.87337170  0.72696970  0.34233574    -0.52000
C596        C  0.84192247  0.72440779  0.31679003     0.12100
H597        H  0.88518307  0.81918537  0.34739976     0.16600
H598        H  0.78845571  0.75221374  0.30526188     0.02400
H599        H  0.83630213  0.75299081  0.43985423     0.16900
H600        H  0.89572920  0.70757963  0.33926693     0.16700
C601        C  0.73705871  0.87402553  0.17679852     0.88500
C602        C  0.77131488  0.87507844  0.20854824    -0.51700
C603        C  0.77407720  0.84356531  0.23353775     0.11500
C604        C  0.74281936  0.81461759  0.22529204     0.22400
C605        C  0.74030751  0.83774405  0.14885213    -0.52400
C606        C  0.74327622  0.80681446  0.17481442     0.11600
C607        C  0.70362435  0.86651888  0.20791155    -0.52000
C608        C  0.70708745  0.83531373  0.23312194     0.12100
H609        H  0.79147808  0.89815171  0.21053002     0.17800
H610        H  0.74516612  0.78914398  0.24608335     0.02400
H611        H  0.73993264  0.83670273  0.11234036     0.16900
H612        H  0.67962090  0.88396072  0.20964729     0.16700
C613        C  0.62936891  0.73531748  0.38222970     0.88500
C614        C  0.63435120  0.70105854  0.35109802    -0.51700
C615        C  0.66454583  0.70473719  0.32373053     0.11500
C616        C  0.68672430  0.74135442  0.33001056     0.22400
C617        C  0.66670650  0.74002828  0.40788733    -0.52400
C618        C  0.69661205  0.74291731  0.38001361     0.11600
C619        C  0.62825555  0.76871122  0.35002250    -0.52000
C620        C  0.65857914  0.77175732  0.32326955     0.12100
H621        H  0.61580289  0.67663348  0.35058316     0.16600
H622        H  0.71126366  0.74410167  0.30760539     0.02400
H623        H  0.66916650  0.74038129  0.44430542     0.16900
H624        H  0.60593866  0.78828685  0.34889365     0.16700
C625        C  0.75585978  0.63015184  0.16596823     0.88500
C626        C  0.72306608  0.62798637  0.19927677    -0.51700
C627        C  0.72199205  0.65794444  0.22761062     0.11500
C628        C  0.75333300  0.68691311  0.22042882     0.22400
C629        C  0.75193246  0.66777933  0.14194820    -0.52400
C630        C  0.75078338  0.69733133  0.17081613     0.11600
C631        C  0.79077574  0.63528974  0.19611927    -0.52000
C632        C  0.78900667  0.66526840  0.22433681     0.12100
H633        H  0.70252294  0.60520979  0.19991944     0.16600
H634        H  0.75232041  0.71127412  0.24369232     0.02400
H635        H  0.75035667  0.67067912  0.10565925     0.16900
H636        H  0.81433022  0.61727285  0.19574278     0.16700
O637        O  0.74014877  0.54384023  0.97842202    -0.69700
O638        O  0.72869887  0.96768941  0.08170469    -0.70000
O639        O  0.74741639  0.54236331  0.06797241    -0.69800
O640        O  0.71956002  0.96849156  0.99250831    -0.69800
O641        O  0.77906345  0.96549573  0.98262451    -0.69800
O642        O  0.80692431  0.53561900  0.06383509    -0.69800
O643        O  0.78812110  0.96366075  0.07199615    -0.69700
O644        O  0.80012037  0.54047480  0.97466043    -0.69900
V645        V  0.74049636  0.50562923  0.02311556     1.35200
V646        V  0.79763315  0.50070792  0.01566280     1.35200
C647        C  0.77089385  0.55602660  0.96284047     0.79500
C648        C  0.75888377  0.95214745  0.09102998     0.79600
C649        C  0.77962197  0.55148670  0.08156027     0.79400
C650        C  0.74632179  0.95404709  0.97268696     0.79400
O651        O  0.54004558  0.73116515  0.57265192    -0.69700
O652        O  0.96782538  0.71353258  0.47942620    -0.70000
O653        O  0.54206647  0.72647398  0.48246233    -0.69800
O654        O  0.96598101  0.71633362  0.56875043    -0.69800
O655        O  0.95640365  0.77569663  0.56560001    -0.69800
O656        O  0.53449657  0.78618805  0.47972846    -0.69800
O657        O  0.96034189  0.77320048  0.47562027    -0.69700
O658        O  0.53046943  0.79049605  0.56895549    -0.69900
V659        V  0.50392160  0.72305710  0.52580807     1.35200
V660        V  0.49551658  0.78021880  0.52255546     1.35200
C661        C  0.54795653  0.76420385  0.58587221     0.79500
C662        C  0.95133612  0.74069451  0.46230893     0.79600
C663        C  0.55180673  0.75786630  0.46697536     0.79400
C664        C  0.94751563  0.74375551  0.58091291     0.79400
C665        C  0.75474522  0.59794704  0.13301788    -0.14400
C666        C  0.78453880  0.58049891  0.11680466    -0.29600
H667        H  0.72746715  0.59079644  0.11911490     0.14600
H668        H  0.81242631  0.58832464  0.12782582     0.15200
C669        C  0.69401773  0.66374757  0.26132132    -0.11200
C670        C  0.67619003  0.67783148  0.29080094    -0.12800
C671        C  0.58346599  0.76145075  0.43593719    -0.14400
C672        C  0.59597838  0.73205243  0.41269431    -0.29600
H673        H  0.59684487  0.78876099  0.43213574     0.14600
H674        H  0.58142016  0.70518323  0.41510254     0.15200
C675        C  0.74573458  0.76910905  0.15839905    -0.11200
C676        C  0.74787397  0.73567150  0.15755374    -0.12800
C677        C  0.68008255  0.82106057  0.26433281    -0.11200
C678        C  0.66538088  0.80124502  0.29178335    -0.12800
C679        C  0.76111513  0.92025083  0.12171682    -0.14400
C680        C  0.73331296  0.90843664  0.14826405    -0.29600
H681        H  0.78692379  0.90541646  0.12207253     0.14600
H682        H  0.70767948  0.92351472  0.14911786     0.15200
C683        C  0.76848481  0.74818973  0.39299770    -0.11200
C684        C  0.73501200  0.74584885  0.39411678    -0.12800
C685        C  0.83380859  0.69585319  0.28372854    -0.11200
C686        C  0.81759459  0.67743481  0.25546167    -0.12800
C687        C  0.82245731  0.81969164  0.29146227    -0.11200
C688        C  0.80364091  0.83587181  0.26470997    -0.12800
C689        C  0.90781810  0.76333175  0.40537292    -0.14400
C690        C  0.92094366  0.73480287  0.42923606    -0.29600
H691        H  0.92183534  0.79052786  0.40777809     0.14600
H692        H  0.90804293  0.70716769  0.42588320     0.15200
C693        C  0.59062310  0.74770863  0.64703269    -0.14400
C694        C  0.57826035  0.77293412  0.61822665    -0.29600
H695        H  0.57607871  0.72078692  0.64890579     0.14600
H696        H  0.59149987  0.80051442  0.61738749     0.15200
C697        C  0.69194318  0.68238655  0.79161863    -0.11200
C698        C  0.67495164  0.69903335  0.76396143    -0.12800
C699        C  0.77413187  0.58868781  0.93328731    -0.14400
C700        C  0.74634684  0.60013786  0.90744180    -0.29600
H701        H  0.80080421  0.60362319  0.93223624     0.14600
H702        H  0.72017429  0.58424789  0.90687725     0.15200
C703        C  0.73014616  0.75731961  0.65378694    -0.11200
C704        C  0.76345119  0.75497630  0.65225623    -0.12800
C705        C  0.82941770  0.69298499  0.75724434    -0.11200
C706        C  0.81375789  0.67660433  0.78750001    -0.12800
C707        C  0.91552087  0.73744303  0.61081715    -0.14400
C708        C  0.90291721  0.76425022  0.63749485    -0.29600
H709        H  0.90236918  0.70980546  0.61146825     0.14600
H710        H  0.91756274  0.79119690  0.63822305     0.15200
C711        C  0.75537912  0.74036172  0.89717322    -0.11200
C712        C  0.75356041  0.77384327  0.89684359    -0.12800
C713        C  0.68677033  0.83721152  0.79313387    -0.11200
C714        C  0.66955258  0.82099069  0.76335076    -0.12800
C715        C  0.80830541  0.83231888  0.78640105    -0.11200
C716        C  0.82393099  0.81552619  0.75767095    -0.12800
C717        C  0.76264536  0.91357118  0.90897058    -0.14400
C718        C  0.73848893  0.92344838  0.94042720    -0.29600
H719        H  0.78842709  0.92978241  0.90537988     0.14600
H720        H  0.71207176  0.90820089  0.94298783     0.15200
loop_ 
_geom_bond_atom_site_label_1 
_geom_bond_atom_site_label_2 
_geom_bond_distance 
_geom_bond_site_symmetry_2 
_ccdc_geom_bond_type 
C1            C2   1.552       .  S
C1            C7   1.536       .  S
C1            C5   1.547       .  S
C1          C177   1.510       .  S
C2            H9   1.086       .  S
C2            C3   1.369       .  D
C3            C4   1.530       .  S
C3          C173   1.451       .  S
C4            C8   1.527       .  S
C4            C6   1.528       .  S
C4           H10   1.113       .  S
C5           H11   1.086       .  S
C5            C6   1.364       .  D
C6          C172   1.443       .  S
C7           H12   1.086       .  S
C7            C8   1.356       .  D
C8          C175   1.428       .  S
C13          C14   1.550       .  S
C13          C19   1.539       .  S
C13          C17   1.547       .  S
C13         C168   1.509       .  S
C14          H21   1.086       .  S
C14          C15   1.366       .  D
C15          C16   1.528       .  S
C15         C165   1.447       .  S
C16          C20   1.526       .  S
C16          C18   1.528       .  S
C16          H22   1.113       .  S
C17          H23   1.086       .  S
C17          C18   1.366       .  D
C18         C164   1.444       .  S
C19          H24   1.086       .  S
C19          C20   1.356       .  D
C20         C176   1.428       .  S
C25          C26   1.552       .  S
C25          C31   1.540       .  S
C25          C29   1.547       .  S
C25         C160   1.514       .  S
C26          H33   1.086       .  S
C26          C27   1.367       .  D
C27          C28   1.527       .  S
C27         C166   1.447       .  S
C28          C32   1.525       .  S
C28          C30   1.527       .  S
C28          H34   1.113       .  S
C29          H35   1.086       .  S
C29          C30   1.364       .  D
C30         C171   1.443       .  S
C31          H36   1.086       .  S
C31          C32   1.360       .  D
C32         C157   1.431       .  S
C37          C38   1.553       .  S
C37          C43   1.539       .  S
C37          C41   1.547       .  S
C37         C153   1.513       .  S
C38          H45   1.086       .  S
C38          C39   1.372       .  D
C39          C40   1.529       .  S
C39         C174   1.451       .  S
C40          C44   1.527       .  S
C40          C42   1.529       .  S
C40          H46   1.113       .  S
C41          H47   1.086       .  S
C41          C42   1.364       .  D
C42         C163   1.444       .  S
C43          H48   1.086       .  S
C43          C44   1.355       .  D
C44         C158   1.432       .  S
C49          C50   1.548       .  S
C49          C55   1.541       .  S
C49          C53   1.547       .  S
C49         C149   1.511       .  S
C50          H57   1.086       .  S
C50          C51   1.364       .  D
C51          C52   1.529       .  S
C51         C147   1.446       .  S
C52          C56   1.529       .  S
C52          C54   1.529       .  S
C52          H58   1.113       .  S
C53          H59   1.086       .  S
C53          C54   1.366       .  D
C54         C143   1.445       .  S
C55          H60   1.086       .  S
C55          C56   1.361       .  D
C56         C145   1.435       .  S
C61          C62   1.551       .  S
C61          C67   1.538       .  S
C61          C65   1.549       .  S
C61         C140   1.510       .  S
C62          H69   1.086       .  S
C62          C63   1.367       .  D
C63          C64   1.526       .  S
C63         C148   1.445       .  S
C64          C68   1.526       .  S
C64          C66   1.526       .  S
C64          H70   1.113       .  S
C65          H71   1.086       .  S
C65          C66   1.366       .  D
C66         C135   1.444       .  S
C67          H72   1.086       .  S
C67          C68   1.357       .  D
C68         C137   1.429       .  S
C73          C74   1.551       .  S
C73          C79   1.538       .  S
C73          C77   1.548       .  S
C73         C132   1.511       .  S
C74          H81   1.086       .  S
C74          C75   1.369       .  D
C75          C76   1.527       .  S
C75         C130   1.446       .  S
C76          C80   1.526       .  S
C76          C78   1.527       .  S
C76          H82   1.113       .  S
C77          H83   1.086       .  S
C77          C78   1.366       .  D
C78         C144   1.445       .  S
C79          H84   1.086       .  S
C79          C80   1.355       .  D
C80         C138   1.429       .  S
C85          C86   1.549       .  S
C85          C91   1.541       .  S
C85          C89   1.547       .  S
C85         C125   1.511       .  S
C86          H93   1.086       .  S
C86          C87   1.364       .  D
C87          C88   1.529       .  S
C87         C129   1.448       .  S
C88          C92   1.530       .  S
C88          C90   1.529       .  S
C88          H94   1.113       .  S
C89          H95   1.086       .  S
C89          C90   1.365       .  D
C90         C136   1.445       .  S
C91          H96   1.086       .  S
C91          C92   1.361       .  D
C92         C146   1.435       .  S
O97         V105   1.921   1_556  S
O97         C107   1.271       .  A
O98         V285   1.914       .  S
O98         C108   1.270       .  A
O99         V105   1.885       .  S
O99         C109   1.261       .  A
O100        V285   1.882   1_556  S
O100        C110   1.257       .  A
O101        V286   1.917   1_556  S
O101        C110   1.271       .  A
O102        V106   1.916       .  S
O102        C109   1.269       .  A
O103        V286   1.886       .  S
O103        C108   1.258       .  A
O104        V106   1.882   1_556  S
O104        C107   1.257       .  A
V105        O278   1.917   1_545  S
V105        O280   1.886   1_544  S
V105        V106   2.088       .  T
V106        O281   1.916   1_544  S
V106        O283   1.887   1_545  S
C107        C159   1.472       .  S
C108        C139   1.472       .  S
C109        C126   1.478       .  S
C110        C178   1.471       .  S
O111        V119   1.911   1_455  S
O111        C121   1.269       .  A
O112        V479   1.915       .  S
O112        C122   1.268       .  A
O113        V119   1.892   1_455  S
O113        C123   1.260       .  A
O114        V479   1.885       .  S
O114        C124   1.260       .  A
O115        V480   1.913       .  S
O115        C124   1.268       .  A
O116        V120   1.909   1_455  S
O116        C123   1.269       .  A
O117        V480   1.886       .  S
O117        C122   1.261       .  A
O118        V120   1.894   1_455  S
O118        C121   1.260       .  A
V119        O472   1.915       .  S
V119        O474   1.885       .  S
V119        V120   2.088       .  T
V120        O475   1.913       .  S
V120        O477   1.886       .  S
C121        C154   1.477       .  S
C122        C150   1.478       .  S
C123        C131   1.475       .  S
C124        C167   1.475       .  S
C125        H127   1.087       .  S
C125        C126   1.349       .  D
C126        H128   1.086       .  S
C129        C130   1.209       .  T
C131        H133   1.087       .  S
C131        C132   1.338       .  D
C132        H134   1.087       .  S
C135        C136   1.208       .  T
C137        C138   1.198       .  T
C139        H141   1.087       .  S
C139        C140   1.337       .  D
C140        H142   1.087       .  S
C143        C144   1.208       .  T
C145        C146   1.202       .  T
C147        C148   1.208       .  T
C149        H151   1.087       .  S
C149        C150   1.349       .  D
C150        H152   1.086       .  S
C153        H155   1.087       .  S
C153        C154   1.338       .  D
C154        H156   1.086       .  S
C157        C158   1.199       .  T
C159        H161   1.087       .  S
C159        C160   1.337       .  D
C160        H162   1.087       .  S
C163        C164   1.207       .  T
C165        C166   1.209       .  T
C167        H169   1.086       .  S
C167        C168   1.350       .  D
C168        H170   1.087       .  S
C171        C172   1.207       .  T
C173        C174   1.212       .  T
C175        C176   1.197       .  T
C177        H179   1.087       .  S
C177        C178   1.335       .  D
C178        H180   1.087       .  S
C181        C182   1.554       .  S
C181        C187   1.537       .  S
C181        C185   1.546       .  S
C181        C357   1.511       .  S
C182        H189   1.086       .  S
C182        C183   1.371       .  D
C183        C184   1.530       .  S
C183        C353   1.453       .  S
C184        C188   1.526       .  S
C184        C186   1.529       .  S
C184        H190   1.113       .  S
C185        H191   1.086       .  S
C185        C186   1.362       .  D
C186        C352   1.443       .  S
C187        H192   1.086       .  S
C187        C188   1.356       .  D
C188        C355   1.426       .  S
C193        C194   1.553       .  S
C193        C199   1.537       .  S
C193        C197   1.548       .  S
C193        C348   1.512       .  S
C194        H201   1.086       .  S
C194        C195   1.370       .  D
C195        C196   1.529       .  S
C195        C345   1.450       .  S
C196        C200   1.525       .  S
C196        C198   1.527       .  S
C196        H202   1.113       .  S
C197        H203   1.086       .  S
C197        C198   1.366       .  D
C198        C344   1.444       .  S
C199        H204   1.087       .  S
C199        C200   1.354       .  D
C200        C356   1.426       .  S
C205        C206   1.554       .  S
C205        C211   1.538       .  S
C205        C209   1.547       .  S
C205        C340   1.513       .  S
C206        H213   1.086       .  S
C206        C207   1.369       .  D
C207        C208   1.528       .  S
C207        C346   1.450       .  S
C208        C212   1.525       .  S
C208        C210   1.527       .  S
C208        H214   1.113       .  S
C209        H215   1.086       .  S
C209        C210   1.365       .  D
C210        C351   1.443       .  S
C211        H216   1.086       .  S
C211        C212   1.357       .  D
C212        C337   1.428       .  S
C217        C218   1.554       .  S
C217        C223   1.538       .  S
C217        C221   1.546       .  S
C217        C333   1.513       .  S
C218        H225   1.086       .  S
C218        C219   1.372       .  D
C219        C220   1.530       .  S
C219        C354   1.453       .  S
C220        C224   1.525       .  S
C220        C222   1.529       .  S
C220        H226   1.113       .  S
C221        H227   1.086       .  S
C221        C222   1.364       .  D
C222        C343   1.445       .  S
C223        H228   1.086       .  S
C223        C224   1.355       .  D
C224        C338   1.429       .  S
C229        C230   1.548       .  S
C229        C235   1.542       .  S
C229        C233   1.547       .  S
C229        C329   1.511       .  S
C230        H237   1.086       .  S
C230        C231   1.364       .  D
C231        C232   1.528       .  S
C231        C327   1.444       .  S
C232        C236   1.530       .  S
C232        C234   1.528       .  S
C232        H238   1.113       .  S
C233        H239   1.086       .  S
C233        C234   1.365       .  D
C234        C323   1.445       .  S
C235        H240   1.086       .  S
C235        C236   1.362       .  D
C236        C325   1.437       .  S
C241        C242   1.550       .  S
C241        C247   1.542       .  S
C241        C245   1.548       .  S
C241        C320   1.514       .  S
C242        H249   1.086       .  S
C242        C243   1.365       .  D
C243        C244   1.526       .  S
C243        C328   1.443       .  S
C244        C248   1.526       .  S
C244        C246   1.525       .  S
C244        H250   1.113       .  S
C245        H251   1.086       .  S
C245        C246   1.364       .  D
C246        C315   1.442       .  S
C247        H252   1.086       .  S
C247        C248   1.362       .  D
C248        C317   1.434       .  S
C253        C254   1.550       .  S
C253        C259   1.542       .  S
C253        C257   1.548       .  S
C253        C312   1.513       .  S
C254        H261   1.086       .  S
C254        C255   1.367       .  D
C255        C256   1.527       .  S
C255        C310   1.444       .  S
C256        C260   1.528       .  S
C256        C258   1.527       .  S
C256        H262   1.113       .  S
C257        H263   1.086       .  S
C257        C258   1.366       .  D
C258        C324   1.445       .  S
C259        H264   1.086       .  S
C259        C260   1.358       .  D
C260        C318   1.435       .  S
C265        C266   1.547       .  S
C265        C271   1.547       .  S
C265        C269   1.544       .  S
C265        C305   1.510       .  S
C266        H273   1.086       .  S
C266        C267   1.363       .  D
C267        C268   1.529       .  S
C267        C309   1.445       .  S
C268        C272   1.529       .  S
C268        C270   1.528       .  S
C268        H274   1.113       .  S
C269        H275   1.086       .  S
C269        C270   1.362       .  D
C270        C316   1.442       .  S
C271        H276   1.084       .  S
C271        C272   1.363       .  D
C272        C326   1.437       .  S
O277        V285   1.918   1_556  S
O277        C287   1.270       .  A
O278        C288   1.269       .  A
O279        V285   1.879       .  S
O279        C289   1.260       .  A
O280        C290   1.258       .  A
O281        C290   1.270       .  A
O282        V286   1.917       .  S
O282        C289   1.269       .  A
O283        C288   1.259       .  A
O284        V286   1.885   1_556  S
O284        C287   1.258       .  A
V285        V286   2.087       .  T
C287        C339   1.473       .  S
C288        C319   1.474       .  S
C289        C306   1.478       .  S
C290        C358   1.473       .  S
O291        V299   1.916       .  S
O291        C301   1.270       .  A
O292        V659   1.912       .  S
O292        C302   1.267       .  A
O293        V299   1.892       .  S
O293        C303   1.261       .  A
O294        V659   1.888       .  S
O294        C304   1.258       .  A
O295        V660   1.914       .  S
O295        C304   1.270       .  A
O296        V300   1.910   1_455  S
O296        C303   1.267       .  A
O297        V660   1.890       .  S
O297        C302   1.262       .  A
O298        V300   1.890   1_455  S
O298        C301   1.259       .  A
V299        O652   1.912   1_455  S
V299        O654   1.888   1_455  S
V299        V300   2.088   1_455  T
V300        O655   1.914       .  S
V300        O657   1.890       .  S
C301        C334   1.476       .  S
C302        C330   1.477       .  S
C303        C311   1.475       .  S
C304        C347   1.474       .  S
C305        H307   1.087       .  S
C305        C306   1.351       .  D
C306        H308   1.084       .  S
C309        C310   1.208       .  T
C311        H313   1.086       .  S
C311        C312   1.349       .  D
C312        H314   1.087       .  S
C315        C316   1.206       .  T
C317        C318   1.202       .  T
C319        H321   1.087       .  S
C319        C320   1.340       .  D
C320        H322   1.087       .  S
C323        C324   1.208       .  T
C325        C326   1.203       .  T
C327        C328   1.207       .  T
C329        H331   1.087       .  S
C329        C330   1.348       .  D
C330        H332   1.086       .  S
C333        H335   1.087       .  S
C333        C334   1.337       .  D
C334        H336   1.086       .  S
C337        C338   1.198       .  T
C339        H341   1.087       .  S
C339        C340   1.336       .  D
C340        H342   1.087       .  S
C343        C344   1.208       .  T
C345        C346   1.211       .  T
C347        H349   1.087       .  S
C347        C348   1.335       .  D
C348        H350   1.088       .  S
C351        C352   1.207       .  T
C353        C354   1.213       .  T
C355        C356   1.196       .  T
C357        H359   1.087       .  S
C357        C358   1.336       .  D
C358        H360   1.087       .  S
C361        C362   1.552       .  S
C361        C367   1.536       .  S
C361        C365   1.547       .  S
C361        C537   1.510       .  S
C362        H369   1.086       .  S
C362        C363   1.369       .  D
C363        C364   1.530       .  S
C363        C533   1.451       .  S
C364        C368   1.527       .  S
C364        C366   1.528       .  S
C364        H370   1.113       .  S
C365        H371   1.086       .  S
C365        C366   1.364       .  D
C366        C532   1.443       .  S
C367        H372   1.086       .  S
C367        C368   1.356       .  D
C368        C535   1.428       .  S
C373        C374   1.550       .  S
C373        C379   1.539       .  S
C373        C377   1.547       .  S
C373        C528   1.509       .  S
C374        H381   1.086       .  S
C374        C375   1.366       .  D
C375        C376   1.528       .  S
C375        C525   1.447       .  S
C376        C380   1.526       .  S
C376        C378   1.528       .  S
C376        H382   1.113       .  S
C377        H383   1.086       .  S
C377        C378   1.366       .  D
C378        C524   1.444       .  S
C379        H384   1.086       .  S
C379        C380   1.356       .  D
C380        C536   1.428       .  S
C385        C386   1.552       .  S
C385        C391   1.540       .  S
C385        C389   1.547       .  S
C385        C520   1.514       .  S
C386        H393   1.086       .  S
C386        C387   1.367       .  D
C387        C388   1.527       .  S
C387        C526   1.447       .  S
C388        C392   1.525       .  S
C388        C390   1.527       .  S
C388        H394   1.113       .  S
C389        H395   1.086       .  S
C389        C390   1.364       .  D
C390        C531   1.443       .  S
C391        H396   1.086       .  S
C391        C392   1.360       .  D
C392        C517   1.431       .  S
C397        C398   1.553       .  S
C397        C403   1.539       .  S
C397        C401   1.547       .  S
C397        C513   1.513       .  S
C398        H405   1.086       .  S
C398        C399   1.372       .  D
C399        C400   1.529       .  S
C399        C534   1.451       .  S
C400        C404   1.527       .  S
C400        C402   1.529       .  S
C400        H406   1.113       .  S
C401        H407   1.086       .  S
C401        C402   1.364       .  D
C402        C523   1.444       .  S
C403        H408   1.086       .  S
C403        C404   1.355       .  D
C404        C518   1.432       .  S
C409        C410   1.548       .  S
C409        C415   1.541       .  S
C409        C413   1.547       .  S
C409        C509   1.511       .  S
C410        H417   1.086       .  S
C410        C411   1.364       .  D
C411        C412   1.529       .  S
C411        C507   1.446       .  S
C412        C416   1.529       .  S
C412        C414   1.529       .  S
C412        H418   1.113       .  S
C413        H419   1.086       .  S
C413        C414   1.366       .  D
C414        C503   1.445       .  S
C415        H420   1.086       .  S
C415        C416   1.361       .  D
C416        C505   1.435       .  S
C421        C422   1.551       .  S
C421        C427   1.538       .  S
C421        C425   1.549       .  S
C421        C500   1.510       .  S
C422        H429   1.086       .  S
C422        C423   1.367       .  D
C423        C424   1.526       .  S
C423        C508   1.445       .  S
C424        C428   1.526       .  S
C424        C426   1.526       .  S
C424        H430   1.113       .  S
C425        H431   1.086       .  S
C425        C426   1.366       .  D
C426        C495   1.444       .  S
C427        H432   1.086       .  S
C427        C428   1.357       .  D
C428        C497   1.429       .  S
C433        C434   1.551       .  S
C433        C439   1.538       .  S
C433        C437   1.548       .  S
C433        C492   1.511       .  S
C434        H441   1.086       .  S
C434        C435   1.369       .  D
C435        C436   1.527       .  S
C435        C490   1.446       .  S
C436        C440   1.526       .  S
C436        C438   1.527       .  S
C436        H442   1.113       .  S
C437        H443   1.086       .  S
C437        C438   1.366       .  D
C438        C504   1.445       .  S
C439        H444   1.086       .  S
C439        C440   1.355       .  D
C440        C498   1.429       .  S
C445        C446   1.549       .  S
C445        C451   1.541       .  S
C445        C449   1.547       .  S
C445        C485   1.511       .  S
C446        H453   1.086       .  S
C446        C447   1.364       .  D
C447        C448   1.529       .  S
C447        C489   1.448       .  S
C448        C452   1.530       .  S
C448        C450   1.529       .  S
C448        H454   1.113       .  S
C449        H455   1.086       .  S
C449        C450   1.365       .  D
C450        C496   1.445       .  S
C451        H456   1.086       .  S
C451        C452   1.361       .  D
C452        C506   1.435       .  S
O457        V465   1.921   1_556  S
O457        C467   1.271       .  A
O458        V645   1.914       .  S
O458        C468   1.270       .  A
O459        V465   1.885       .  S
O459        C469   1.261       .  A
O460        V645   1.882   1_556  S
O460        C470   1.257       .  A
O461        V646   1.917   1_556  S
O461        C470   1.271       .  A
O462        V466   1.916       .  S
O462        C469   1.269       .  A
O463        V646   1.886       .  S
O463        C468   1.258       .  A
O464        V466   1.882   1_556  S
O464        C467   1.257       .  A
V465        O638   1.917   1_545  S
V465        O640   1.886   1_544  S
V465        V466   2.088       .  T
V466        O641   1.916   1_544  S
V466        O643   1.887   1_545  S
C467        C519   1.472       .  S
C468        C499   1.472       .  S
C469        C486   1.478       .  S
C470        C538   1.471       .  S
O471        V479   1.911       .  S
O471        C481   1.269       .  A
O472        C482   1.268       .  A
O473        V479   1.892       .  S
O473        C483   1.260       .  A
O474        C484   1.260       .  A
O475        C484   1.268       .  A
O476        V480   1.909       .  S
O476        C483   1.269       .  A
O477        C482   1.261       .  A
O478        V480   1.894       .  S
O478        C481   1.260       .  A
V479        V480   2.088       .  T
C481        C514   1.477       .  S
C482        C510   1.478       .  S
C483        C491   1.475       .  S
C484        C527   1.475       .  S
C485        H487   1.087       .  S
C485        C486   1.349       .  D
C486        H488   1.086       .  S
C489        C490   1.209       .  T
C491        H493   1.087       .  S
C491        C492   1.338       .  D
C492        H494   1.087       .  S
C495        C496   1.208       .  T
C497        C498   1.198       .  T
C499        H501   1.087       .  S
C499        C500   1.337       .  D
C500        H502   1.087       .  S
C503        C504   1.208       .  T
C505        C506   1.202       .  T
C507        C508   1.208       .  T
C509        H511   1.087       .  S
C509        C510   1.349       .  D
C510        H512   1.086       .  S
C513        H515   1.087       .  S
C513        C514   1.338       .  D
C514        H516   1.086       .  S
C517        C518   1.199       .  T
C519        H521   1.087       .  S
C519        C520   1.337       .  D
C520        H522   1.087       .  S
C523        C524   1.207       .  T
C525        C526   1.209       .  T
C527        H529   1.086       .  S
C527        C528   1.350       .  D
C528        H530   1.087       .  S
C531        C532   1.207       .  T
C533        C534   1.212       .  T
C535        C536   1.197       .  T
C537        H539   1.087       .  S
C537        C538   1.335       .  D
C538        H540   1.087       .  S
C541        C542   1.554       .  S
C541        C547   1.537       .  S
C541        C545   1.546       .  S
C541        C717   1.511       .  S
C542        H549   1.086       .  S
C542        C543   1.371       .  D
C543        C544   1.530       .  S
C543        C713   1.453       .  S
C544        C548   1.526       .  S
C544        C546   1.529       .  S
C544        H550   1.113       .  S
C545        H551   1.086       .  S
C545        C546   1.362       .  D
C546        C712   1.443       .  S
C547        H552   1.086       .  S
C547        C548   1.356       .  D
C548        C715   1.426       .  S
C553        C554   1.553       .  S
C553        C559   1.537       .  S
C553        C557   1.548       .  S
C553        C708   1.512       .  S
C554        H561   1.086       .  S
C554        C555   1.370       .  D
C555        C556   1.529       .  S
C555        C705   1.450       .  S
C556        C560   1.525       .  S
C556        C558   1.527       .  S
C556        H562   1.113       .  S
C557        H563   1.086       .  S
C557        C558   1.366       .  D
C558        C704   1.444       .  S
C559        H564   1.087       .  S
C559        C560   1.354       .  D
C560        C716   1.426       .  S
C565        C566   1.554       .  S
C565        C571   1.538       .  S
C565        C569   1.547       .  S
C565        C700   1.513       .  S
C566        H573   1.086       .  S
C566        C567   1.369       .  D
C567        C568   1.528       .  S
C567        C706   1.450       .  S
C568        C572   1.525       .  S
C568        C570   1.527       .  S
C568        H574   1.113       .  S
C569        H575   1.086       .  S
C569        C570   1.365       .  D
C570        C711   1.443       .  S
C571        H576   1.086       .  S
C571        C572   1.357       .  D
C572        C697   1.428       .  S
C577        C578   1.554       .  S
C577        C583   1.538       .  S
C577        C581   1.546       .  S
C577        C693   1.513       .  S
C578        H585   1.086       .  S
C578        C579   1.372       .  D
C579        C580   1.530       .  S
C579        C714   1.453       .  S
C580        C584   1.525       .  S
C580        C582   1.529       .  S
C580        H586   1.113       .  S
C581        H587   1.086       .  S
C581        C582   1.364       .  D
C582        C703   1.445       .  S
C583        H588   1.086       .  S
C583        C584   1.355       .  D
C584        C698   1.429       .  S
C589        C590   1.548       .  S
C589        C595   1.542       .  S
C589        C593   1.547       .  S
C589        C689   1.511       .  S
C590        H597   1.086       .  S
C590        C591   1.364       .  D
C591        C592   1.528       .  S
C591        C687   1.444       .  S
C592        C596   1.530       .  S
C592        C594   1.528       .  S
C592        H598   1.113       .  S
C593        H599   1.086       .  S
C593        C594   1.365       .  D
C594        C683   1.445       .  S
C595        H600   1.086       .  S
C595        C596   1.362       .  D
C596        C685   1.437       .  S
C601        C602   1.550       .  S
C601        C607   1.542       .  S
C601        C605   1.548       .  S
C601        C680   1.514       .  S
C602        H609   1.086       .  S
C602        C603   1.365       .  D
C603        C604   1.526       .  S
C603        C688   1.443       .  S
C604        C608   1.526       .  S
C604        C606   1.525       .  S
C604        H610   1.113       .  S
C605        H611   1.086       .  S
C605        C606   1.364       .  D
C606        C675   1.442       .  S
C607        H612   1.086       .  S
C607        C608   1.362       .  D
C608        C677   1.434       .  S
C613        C614   1.550       .  S
C613        C619   1.542       .  S
C613        C617   1.548       .  S
C613        C672   1.513       .  S
C614        H621   1.086       .  S
C614        C615   1.367       .  D
C615        C616   1.527       .  S
C615        C670   1.444       .  S
C616        C620   1.528       .  S
C616        C618   1.527       .  S
C616        H622   1.113       .  S
C617        H623   1.086       .  S
C617        C618   1.366       .  D
C618        C684   1.445       .  S
C619        H624   1.086       .  S
C619        C620   1.358       .  D
C620        C678   1.435       .  S
C625        C626   1.547       .  S
C625        C631   1.547       .  S
C625        C629   1.544       .  S
C625        C665   1.510       .  S
C626        H633   1.086       .  S
C626        C627   1.363       .  D
C627        C628   1.529       .  S
C627        C669   1.445       .  S
C628        C632   1.529       .  S
C628        C630   1.528       .  S
C628        H634   1.113       .  S
C629        H635   1.086       .  S
C629        C630   1.362       .  D
C630        C676   1.442       .  S
C631        H636   1.084       .  S
C631        C632   1.363       .  D
C632        C686   1.437       .  S
O637        V645   1.918   1_556  S
O637        C647   1.270       .  A
O638        C648   1.269       .  A
O639        V645   1.879       .  S
O639        C649   1.260       .  A
O640        C650   1.258       .  A
O641        C650   1.270       .  A
O642        V646   1.917       .  S
O642        C649   1.269       .  A
O643        C648   1.259       .  A
O644        V646   1.885   1_556  S
O644        C647   1.258       .  A
V645        V646   2.087       .  T
C647        C699   1.473       .  S
C648        C679   1.474       .  S
C649        C666   1.478       .  S
C650        C718   1.473       .  S
O651        V659   1.916       .  S
O651        C661   1.270       .  A
O652        C662   1.267       .  A
O653        V659   1.892       .  S
O653        C663   1.261       .  A
O654        C664   1.258       .  A
O655        C664   1.270       .  A
O656        V660   1.910       .  S
O656        C663   1.267       .  A
O657        C662   1.262       .  A
O658        V660   1.890       .  S
O658        C661   1.259       .  A
V659        V660   2.088       .  T
C661        C694   1.476       .  S
C662        C690   1.477       .  S
C663        C671   1.475       .  S
C664        C707   1.474       .  S
C665        H667   1.087       .  S
C665        C666   1.351       .  D
C666        H668   1.084       .  S
C669        C670   1.208       .  T
C671        H673   1.086       .  S
C671        C672   1.349       .  D
C672        H674   1.087       .  S
C675        C676   1.206       .  T
C677        C678   1.202       .  T
C679        H681   1.087       .  S
C679        C680   1.340       .  D
C680        H682   1.087       .  S
C683        C684   1.208       .  T
C685        C686   1.203       .  T
C687        C688   1.207       .  T
C689        H691   1.087       .  S
C689        C690   1.348       .  D
C690        H692   1.086       .  S
C693        H695   1.087       .  S
C693        C694   1.337       .  D
C694        H696   1.086       .  S
C697        C698   1.198       .  T
C699        H701   1.087       .  S
C699        C700   1.336       .  D
C700        H702   1.087       .  S
C703        C704   1.208       .  T
C705        C706   1.211       .  T
C707        H709   1.087       .  S
C707        C708   1.335       .  D
C708        H710   1.088       .  S
C711        C712   1.207       .  T
C713        C714   1.213       .  T
C715        C716   1.196       .  T
C717        H719   1.087       .  S
C717        C718   1.336       .  D
C718        H720   1.087       .  S
