geometry optimzed in LAMMPS
_audit_creation_date              2020-11-30 
_audit_creation_method            'lammps2cif' 
_symmetry_space_group_name_H-M    'P1' 
_symmetry_Int_Tables_number       1 
_symmetry_cell_setting            triclinic 
loop_ 
_symmetry_equiv_pos_as_xyz 
  x,y,z 
_cell_length_a                    26.58790058 
_cell_length_b                    23.219381218155384 
_cell_length_c                    26.433177959671507 
_cell_angle_alpha                 95.81678993627649 
_cell_angle_beta                  72.5128935785196 
_cell_angle_gamma                 100.82965223343167 
loop_ 
_atom_site_label 
_atom_site_type_symbol 
_atom_site_fract_x 
_atom_site_fract_y 
_atom_site_fract_z 
_atom_site_charge 
O1          O  0.96310325  0.04841681  0.14068275    -0.81100
O2          O  0.98352640  0.02432620  0.89527820    -0.65800
O3          O  0.95823034  0.99537155  0.04061855    -1.12400
C4          C  0.14655345  0.99935579  0.98912927     1.05800
O5          O  0.03812986  0.95967574  0.86578130    -0.79000
O6          O  0.06058028  0.89946226  0.93499243    -0.66600
Ni7        Ni  0.91899758  0.04555293  0.09389303     1.34900
C8          C  0.03692789  0.88198559  0.98140489     0.84500
O9          O  0.89475041  0.00104074  0.97553055    -0.79600
O10         O  0.86741032  0.04577513  0.05574740    -0.89800
C11         C  0.00939244  0.99355982  0.85766007     0.84100
O12         O  0.96070990  0.11716049  0.06472296    -0.68000
O13         O  0.14301395  0.98797361  0.94207744    -0.87300
C14         C  0.97375359  0.13188063  0.01697392     0.84900
C15         C  0.85894252  0.02160634  0.01288405     1.06500
H16         H  0.05966937  0.05994030  0.95982227     0.38300
O17         O  0.04355653  0.01907997  0.96345614    -1.10000
O18         O  0.02530130  0.91715904  0.02167251    -0.66600
Ni19       Ni  0.03218407  0.00076186  0.03519505     1.26300
O20         O  0.97318980  0.09461297  0.97837746    -0.66900
O21         O  0.10670621  0.00706619  0.02883097    -0.79200
C22         C  0.99226652  0.01325632  0.14628886     0.84300
O23         O  0.01747706  0.98371179  0.10724997    -0.66300
Ni24       Ni  0.08771586  0.97553794  0.90752631     1.27400
Ni25       Ni  0.96940377  0.01064805  0.96821161     1.26100
H26         H  0.93997110  0.95546569  0.04670998     0.38800
O27         O  0.96359156  0.04723634  0.63973637    -0.81100
O28         O  0.98058344  0.02219795  0.39778642    -0.65800
O29         O  0.95636659  0.98983907  0.54197313    -1.12400
C30         C  0.14296206  0.98895469  0.49068402     1.05800
O31         O  0.03661070  0.95948168  0.36436367    -0.79000
O32         O  0.04917666  0.89330852  0.43586351    -0.66600
Ni33       Ni  0.91490285  0.03684455  0.59708856     1.34900
C34         C  0.03019873  0.87650777  0.48301380     0.84500
O35         O  0.89265355  0.99797825  0.47757110    -0.79600
O36         O  0.86014954  0.03010025  0.56199976    -0.89800
C37         C  0.00599345  0.99282949  0.35880856     0.84100
O38         O  0.94765673  0.11146189  0.56878121    -0.68000
O39         O  0.13736155  0.97270830  0.44489694    -0.87300
C40         C  0.96601838  0.12684973  0.52118822     0.84900
C41         C  0.85465368  0.01206819  0.51652252     1.06500
H42         H  0.05837844  0.05421036  0.46017760     0.38300
O43         O  0.04146949  0.01364484  0.46449051    -1.10000
O44         O  0.02465990  0.91179420  0.52369353    -0.66600
Ni45       Ni  0.03037822  0.99583998  0.53646374     1.26300
O46         O  0.97228715  0.09015680  0.48167838    -0.66900
O47         O  0.10491200  0.00300525  0.52958862    -0.79200
C48         C  0.99191845  0.01220753  0.64692637     0.84300
O49         O  0.01589440  0.98023667  0.60903237    -0.66300
Ni50       Ni  0.08359799  0.96795593  0.40881893     1.27400
Ni51       Ni  0.96721519  0.00651771  0.47005976     1.26100
H52         H  0.93897284  0.94949318  0.54687850     0.38800
O53         O  0.96113835  0.54817155  0.13570033    -0.81100
O54         O  0.98416945  0.52892529  0.89094149    -0.65800
O55         O  0.95633968  0.49435763  0.03561370    -1.12400
C56         C  0.14349770  0.49588287  0.98441632     1.05800
O57         O  0.03349590  0.45923445  0.86159305    -0.79000
O58         O  0.05232207  0.39581286  0.93145067    -0.66600
Ni59       Ni  0.91457822  0.54078459  0.09096789     1.34900
C60         C  0.03281332  0.38002191  0.97886976     0.84500
O61         O  0.89486185  0.50732894  0.96981451    -0.79600
O62         O  0.86121875  0.53689241  0.05454624    -0.89800
C63         C  0.00758563  0.49631475  0.85332628     0.84100
O64         O  0.94990150  0.61535306  0.06400809    -0.68000
O65         O  0.13846365  0.47995396  0.93825555    -0.87300
C66         C  0.96974169  0.63231648  0.01694337     0.84900
C67         C  0.85638277  0.52059009  0.00851461     1.06500
H68         H  0.05995170  0.55759585  0.95454831     0.38300
O69         O  0.04208014  0.51735636  0.95891747    -1.10000
O70         O  0.02443419  0.41604913  0.01875848    -0.66600
Ni71       Ni  0.03021186  0.49974300  0.03080810     1.26300
O72         O  0.97597099  0.59687111  0.97639941    -0.66900
O73         O  0.10452887  0.50681231  0.02379979    -0.79200
C74         C  0.99037654  0.51357488  0.14187252     0.84300
O75         O  0.01558112  0.48341395  0.10329324    -0.66300
Ni76       Ni  0.08330176  0.47102238  0.90335522     1.27400
Ni77       Ni  0.96870584  0.51286555  0.96360048     1.26100
H78         H  0.93879045  0.45398662  0.03967407     0.38800
O79         O  0.96592806  0.54394582  0.63359005    -0.81100
O80         O  0.98282733  0.52298990  0.39054870    -0.65800
O81         O  0.95736515  0.48949254  0.53512609    -1.12400
C82         C  0.14430046  0.48875485  0.48086987     1.05800
O83         O  0.03227789  0.45346552  0.36041449    -0.79000
O84         O  0.05257176  0.39010069  0.42930468    -0.66600
Ni85       Ni  0.91757097  0.53686293  0.59082946     1.34900
C86         C  0.03117706  0.37383487  0.47643389     0.84500
O87         O  0.89414836  0.50161870  0.47113399    -0.79600
O88         O  0.86294078  0.53301124  0.55583488    -0.89800
C89         C  0.00566325  0.49010721  0.35274999     0.84100
O90         O  0.95359360  0.61085760  0.56310802    -0.68000
O91         O  0.13909834  0.47448898  0.43459431    -0.87300
C92         C  0.97261121  0.62710149  0.51581412     0.84900
C93         C  0.85650973  0.51567322  0.51048112     1.06500
H94         H  0.06016711  0.55179049  0.45315251     0.38300
O95         O  0.04225111  0.51155913  0.45737286    -1.10000
O96         O  0.02298622  0.40978512  0.51637246    -0.66600
Ni97       Ni  0.03117764  0.49326152  0.52901789     1.26300
O98         O  0.97624133  0.59149041  0.47549559    -0.66900
O99         O  0.10540868  0.49815814  0.52088544    -0.79200
C100        C  0.99326569  0.50736501  0.64001667     0.84300
O101        O  0.01725689  0.47635172  0.60137948    -0.66300
Ni102      Ni  0.08300030  0.46541987  0.40108674     1.27400
Ni103      Ni  0.96852460  0.50737822  0.46325627     1.26100
H104        H  0.93908453  0.44942582  0.53977923     0.38800
O105        O  0.46685593  0.04379188  0.14307624    -0.81100
O106        O  0.47894710  0.02142407  0.90036143    -0.65800
O107        O  0.45800149  0.99096423  0.04461205    -1.12400
C108        C  0.64729292  0.99805321  0.98502021     1.05800
O109        O  0.52948969  0.95320814  0.87099374    -0.79000
O110        O  0.56029257  0.89471956  0.93583055    -0.66600
Ni111      Ni  0.41971616  0.04047980  0.09940410     1.34900
C112        C  0.53709634  0.87672216  0.98218430     0.84500
O113        O  0.39227150  0.99929807  0.98265688    -0.79600
O114        O  0.36554569  0.04050599  0.06422951    -0.89800
C115        C  0.50191388  0.98853886  0.86279723     0.84100
O116        O  0.45930210  0.11287549  0.07030207    -0.68000
O117        O  0.64194470  0.98670571  0.93851981    -0.87300
C118        C  0.47283923  0.12860002  0.02283849     0.84900
C119        C  0.35658871  0.01879605  0.02088328     1.06500
H120        H  0.55789486  0.05493586  0.96201367     0.38300
O121        O  0.54138259  0.01419066  0.96563552    -1.10000
O122        O  0.52499605  0.91126804  0.02286264    -0.66600
Ni123      Ni  0.53254281  0.99519470  0.03649470     1.26300
O124        O  0.47278916  0.09193211  0.98363671    -0.66900
O125        O  0.60781926  0.00128810  0.02649575    -0.79200
C126        C  0.49612150  0.00828607  0.14771294     0.84300
O127        O  0.52030913  0.97814160  0.10837748    -0.66300
Ni128      Ni  0.58341213  0.97111598  0.90794228     1.27400
Ni129      Ni  0.46704539  0.00747783  0.97294172     1.26100
H130        H  0.43972047  0.95103398  0.05046157     0.38800
O131        O  0.46146358  0.03345171  0.64039528    -0.81100
O132        O  0.48380966  0.01035835  0.39620077    -0.65800
O133        O  0.45617302  0.97733182  0.54116007    -1.12400
C134        C  0.64237662  0.97687914  0.49157056     1.05800
O135        O  0.53655178  0.94371783  0.36533737    -0.79000
O136        O  0.54896549  0.87855595  0.43752665    -0.66600
Ni137      Ni  0.41449715  0.02429503  0.59599807     1.34900
C138        C  0.52937074  0.86253560  0.48490799     0.84500
O139        O  0.39406786  0.98785467  0.47507572    -0.79600
O140        O  0.36100064  0.01866111  0.55957742    -0.89800
C141        C  0.50882770  0.97937919  0.35811797     0.84100
O142        O  0.44917027  0.09886110  0.56838424    -0.68000
O143        O  0.63715712  0.95860153  0.44605441    -0.87300
C144        C  0.46923385  0.11513430  0.52113092     0.84900
C145        C  0.35574433  0.00169201  0.51378853     1.06500
H146        H  0.55977758  0.04039397  0.45969744     0.38300
O147        O  0.54205547  0.00012263  0.46440552    -1.10000
O148        O  0.52398525  0.89898931  0.52472685    -0.66600
Ni149      Ni  0.52992370  0.98314456  0.53665435     1.26300
O150        O  0.47494070  0.07908107  0.48095932    -0.66900
O151        O  0.60420084  0.99098200  0.53029746    -0.79200
C152        C  0.48982608  0.99851566  0.64772552     0.84300
O153        O  0.51490262  0.96780456  0.60950499    -0.66300
Ni154      Ni  0.58363402  0.95287710  0.40965220     1.27400
Ni155      Ni  0.46838259  0.99480027  0.46893613     1.26100
H156        H  0.43864651  0.93701989  0.54568414     0.38800
O157        O  0.45115321  0.53469127  0.14158395    -0.81100
O158        O  0.48078699  0.52094154  0.89332625    -0.65800
O159        O  0.45500927  0.48975807  0.03819054    -1.12400
C160        C  0.64391664  0.49925879  0.98470449     1.05800
O161        O  0.53173890  0.45284165  0.86534544    -0.79000
O162        O  0.55687133  0.39432340  0.93389718    -0.66600
Ni163      Ni  0.41376403  0.53941621  0.09032921     1.34900
C164        C  0.53509295  0.37773818  0.98086484     0.84500
O165        O  0.39261027  0.49466742  0.97264774    -0.79600
O166        O  0.36711900  0.54698996  0.04819582    -0.89800
C167        C  0.50406940  0.48749618  0.85649073     0.84100
O168        O  0.46122118  0.60953565  0.06451181    -0.68000
O169        O  0.63932037  0.48424218  0.93836880    -0.87300
C170        C  0.47492572  0.62648359  0.01735620     0.84900
C171        C  0.35765004  0.51913533  0.00704968     1.06500
H172        H  0.55664281  0.55550798  0.95656471     0.38300
O173        O  0.54029178  0.51478635  0.96099995    -1.10000
O174        O  0.52443651  0.41383896  0.02062546    -0.66600
Ni175      Ni  0.52955954  0.49774615  0.03275782     1.26300
O176        O  0.47045912  0.59090969  0.97818046    -0.66900
O177        O  0.60449153  0.50674994  0.02502473    -0.79200
C178        C  0.48609186  0.50602489  0.14544192     0.84300
O179        O  0.51658544  0.48267555  0.10530943    -0.66300
Ni180      Ni  0.58302109  0.47001293  0.90518587     1.27400
Ni181      Ni  0.46665551  0.50624825  0.96600523     1.26100
H182        H  0.43760080  0.44949775  0.04380403     0.38800
O183        O  0.44834585  0.52405491  0.64109851    -0.81100
O184        O  0.47883895  0.50424650  0.39315453    -0.65800
O185        O  0.45374482  0.47506763  0.53830071    -1.12400
C186        C  0.64104987  0.48311836  0.48998586     1.05800
O187        O  0.53900041  0.44590264  0.35969267    -0.79000
O188        O  0.54671682  0.38089297  0.43555800    -0.66600
Ni189      Ni  0.41098633  0.52455652  0.58953858     1.34900
C190        C  0.52920474  0.36509380  0.48313804     0.84500
O191        O  0.39110138  0.47680110  0.47189453    -0.79600
O192        O  0.36486884  0.52972737  0.54684732    -0.89800
C193        C  0.50655273  0.47687852  0.35406485     0.84100
O194        O  0.45652294  0.59502355  0.56325995    -0.68000
O195        O  0.63525668  0.46058011  0.44565863    -0.87300
C196        C  0.46963899  0.61109665  0.51593518     0.84900
C197        C  0.35618191  0.50227100  0.50539819     1.06500
H198        H  0.55524651  0.54182337  0.45565557     0.38300
O199        O  0.53936281  0.50103124  0.46104821    -1.10000
O200        O  0.52586277  0.40170577  0.52293390    -0.66600
Ni201      Ni  0.52819129  0.48602328  0.53370811     1.26300
O202        O  0.46734396  0.57454246  0.47691939    -0.66900
O203        O  0.60273619  0.49891951  0.52742173    -0.79200
C204        C  0.48449807  0.49811695  0.64584292     0.84300
O205        O  0.51505730  0.47332605  0.60683258    -0.66300
Ni206      Ni  0.58308337  0.45468228  0.40731000     1.27400
Ni207      Ni  0.46534260  0.49007721  0.46570900     1.26100
H208        H  0.43730143  0.43458966  0.54439529     0.38800
C209        C  0.49832038  0.48843007  0.80258541    -0.00400
C210        C  0.48442106  0.53879398  0.78864602    -0.12300
C211        C  0.48022438  0.54321941  0.73784806     0.01800
C212        C  0.49028813  0.49649652  0.69946765    -0.00500
C213        C  0.50413060  0.44612617  0.71325067    -0.12200
C214        C  0.50777089  0.44140488  0.76429643     0.01700
H215        H  0.47746055  0.57541688  0.81735453     0.14700
H216        H  0.51094692  0.40965155  0.68434017     0.14700
C217        C  0.51929537  0.38688732  0.77643962     0.36400
C218        C  0.46713013  0.59706198  0.72603245     0.36300
N219        N  0.52833715  0.34310007  0.78616619    -0.44000
N220        N  0.45654370  0.64023373  0.71683218    -0.44000
C221        C  0.49107540  0.49923584  0.19905777    -0.00400
C222        C  0.51355498  0.45182980  0.20685953    -0.12300
C223        C  0.51830593  0.44269033  0.25673319     0.01800
C224        C  0.50079821  0.48199738  0.30041783    -0.00500
C225        C  0.47818180  0.52922986  0.29252776    -0.12200
C226        C  0.47303024  0.53808723  0.24291669     0.01700
H227        H  0.52684080  0.42103363  0.17395549     0.14700
H228        H  0.46488355  0.56020760  0.32526950     0.14700
C229        C  0.45029501  0.58852038  0.23844952     0.36400
C230        C  0.54020627  0.39181844  0.26162583     0.36300
N231        N  0.43193101  0.62888976  0.23510457    -0.44000
N232        N  0.55781404  0.35094378  0.26514221    -0.44000
C233        C  0.48568643  0.67505827  0.50674571    -0.00400
C234        C  0.46719509  0.71513987  0.54881982    -0.12300
C235        C  0.48004131  0.77586104  0.54280278     0.01800
C236        C  0.51302350  0.79829803  0.49368149    -0.00500
C237        C  0.53126683  0.75806456  0.45147424    -0.12200
C238        C  0.51791478  0.69727324  0.45740849     0.01700
H239        H  0.44159216  0.69897531  0.58668799     0.14700
H240        H  0.55670995  0.77403315  0.41349277     0.14700
C241        C  0.53923587  0.65920330  0.41242203     0.36400
C242        C  0.45722677  0.81342111  0.58757731     0.36300
N243        N  0.55644039  0.62899551  0.37618997    -0.44000
N244        N  0.43868286  0.84321628  0.62356793    -0.44000
C245        C  0.48551127  0.17915232  0.51211293    -0.00400
C246        C  0.48171039  0.20015935  0.46563055    -0.12300
C247        C  0.49464162  0.26016099  0.45586569     0.01800
C248        C  0.51293720  0.30106019  0.49267668    -0.00500
C249        C  0.51667327  0.28003860  0.53926470    -0.12200
C250        C  0.50338778  0.21997072  0.54918147     0.01700
H251        H  0.46725688  0.16965391  0.43720614     0.14700
H252        H  0.53099769  0.31054232  0.56775313     0.14700
C253        C  0.51049755  0.20148046  0.59679746     0.36400
C254        C  0.48619200  0.27841425  0.40884055     0.36300
N255        N  0.51630250  0.18670980  0.63491032    -0.44000
N256        N  0.47903286  0.29289263  0.37130165    -0.44000
C257        C  0.49437099  0.69025343  0.00758542    -0.00400
C258        C  0.48902791  0.71276210  0.96232079    -0.12300
C259        C  0.50347527  0.77284930  0.95284140     0.01800
C260        C  0.52338474  0.81235556  0.98935624    -0.00500
C261        C  0.52994833  0.78993360  0.03394718    -0.12200
C262        C  0.51654812  0.72962657  0.04290540     0.01700
H263        H  0.47229105  0.68351453  0.93463221     0.14700
H264        H  0.54643194  0.81962469  0.06156853     0.14700
C265        C  0.52802545  0.70942888  0.08752966     0.36400
C266        C  0.49516027  0.79299325  0.90647955     0.36300
N267        N  0.53765855  0.69327170  0.12304648    -0.44000
N268        N  0.48857276  0.80913865  0.86930451    -0.44000
C269        C  0.48882456  0.19235147  0.01255594    -0.00400
C270        C  0.52615829  0.21016119  0.96427004    -0.12300
C271        C  0.54236396  0.26980049  0.95298053     0.01800
C272        C  0.52044643  0.31348501  0.99029734    -0.00500
C273        C  0.48278617  0.29531823  0.03834480    -0.12200
C274        C  0.46694770  0.23588720  0.04968830     0.01700
H275        H  0.54349883  0.17733586  0.93545117     0.14700
H276        H  0.46484705  0.32771061  0.06725472     0.14700
C277        C  0.42655167  0.22102846  0.09907338     0.36400
C278        C  0.58269493  0.28439960  0.90347167     0.36300
N279        N  0.39420116  0.20907716  0.13864075    -0.44000
N280        N  0.61512016  0.29594801  0.86383854    -0.44000
C281        C  0.49374505  0.99507236  0.70239620    -0.00400
C282        C  0.45932399  0.02317002  0.74492129    -0.12300
C283        C  0.46050588  0.02140474  0.79730914     0.01800
C284        C  0.49662325  0.99033748  0.80851396    -0.00500
C285        C  0.53062525  0.96175891  0.76611358    -0.12200
C286        C  0.52990750  0.96414701  0.71366644     0.01700
H287        H  0.43100905  0.04686922  0.73742776     0.14700
H288        H  0.55904152  0.93823585  0.77364549     0.14700
C289        C  0.56804493  0.93573436  0.67258559     0.36400
C290        C  0.42397526  0.05200307  0.83823414     0.36300
N291        N  0.59885915  0.91313269  0.63982290    -0.44000
N292        N  0.39480963  0.07679442  0.87081256    -0.44000
C293        C  0.50198793  0.00226143  0.20078651    -0.00400
C294        C  0.50854362  0.94751447  0.21384788    -0.12300
C295        C  0.51048609  0.93855691  0.26478658     0.01800
C296        C  0.50567824  0.98514123  0.30393644    -0.00500
C297        C  0.49989753  0.04000542  0.29054203    -0.12200
C298        C  0.49852146  0.04909558  0.23957755     0.01700
H299        H  0.51092164  0.91111844  0.18451432     0.14700
H300        H  0.49758532  0.07650886  0.31976935     0.14700
C301        C  0.49592140  0.10765821  0.22771488     0.36400
C302        C  0.51565738  0.88066023  0.27597939     0.36300
N303        N  0.49417574  0.15464663  0.21810239    -0.44000
N304        N  0.51987835  0.83424907  0.28477771    -0.44000
C305        C  0.80187199  0.51002755  0.50438418    -0.00400
C306        C  0.75771957  0.50526929  0.55023195    -0.12300
C307        C  0.70518141  0.49689321  0.54700314     0.01800
C308        C  0.69562943  0.49229785  0.49679253    -0.00500
C309        C  0.73979609  0.49799090  0.45104515    -0.12200
C310        C  0.79230006  0.50744598  0.45430808     0.01700
H311        H  0.76406187  0.50717328  0.58906946     0.14700
H312        H  0.73342053  0.49625797  0.41222983     0.14700
C313        C  0.83514589  0.51661262  0.40554463     0.36400
C314        C  0.66229559  0.49194286  0.59602351     0.36300
N315        N  0.86916354  0.52431519  0.36630188    -0.44000
N316        N  0.62835320  0.48836397  0.63563049    -0.44000
C317        C  0.19858457  0.49429041  0.48779139    -0.00400
C318        C  0.24056357  0.47957371  0.44412724    -0.12300
C319        C  0.29228734  0.48289070  0.44811879     0.01800
C320        C  0.30307090  0.50047253  0.49711902    -0.00500
C321        C  0.26147365  0.51643511  0.54042317    -0.12200
C322        C  0.20999149  0.51406016  0.53628704     0.01700
H323        H  0.23322387  0.46531183  0.40625431     0.14700
H324        H  0.26890457  0.53064468  0.57827892     0.14700
C325        C  0.17055066  0.53316612  0.58263874     0.36400
C326        C  0.33317176  0.46905610  0.40072024     0.36300
N327        N  0.13931519  0.54883441  0.61985990    -0.44000
N328        N  0.36547460  0.45789927  0.36238998    -0.44000
C329        C  0.80295418  0.51659755  0.00035762    -0.00400
C330        C  0.76635363  0.55019747  0.03441447    -0.12300
C331        C  0.71454426  0.54592561  0.03008883     0.01800
C332        C  0.69827149  0.50697567  0.99115865    -0.00500
C333        C  0.73516759  0.47434569  0.95650191    -0.12200
C334        C  0.78689028  0.47869740  0.96062615     0.01700
H335        H  0.77829307  0.58027306  0.06449666     0.14700
H336        H  0.72325032  0.44416455  0.92645787     0.14700
C337        C  0.82152938  0.44185357  0.92467492     0.36400
C338        C  0.67978674  0.58338831  0.06496744     0.36300
N339        N  0.84926101  0.41237190  0.89582761    -0.44000
N340        N  0.65202011  0.61351748  0.09283607    -0.44000
C341        C  0.30365386  0.51483804  0.99979680    -0.00400
C342        C  0.26094280  0.52539874  0.04430601    -0.12300
C343        C  0.20855771  0.51860313  0.04100969     0.01800
C344        C  0.19787425  0.50233739  0.99161046    -0.00500
C345        C  0.24078410  0.49217509  0.94706689    -0.12200
C346        C  0.29285004  0.49756870  0.95067239     0.01700
H347        H  0.26811510  0.53750491  0.08256940     0.14700
H348        H  0.23385664  0.47939828  0.90879413     0.14700
C349        C  0.33374837  0.48456182  0.90294011     0.36400
C350        C  0.16700467  0.52716230  0.08960927     0.36300
N351        N  0.36588379  0.47336922  0.86447896    -0.44000
N352        N  0.13391420  0.53369730  0.12877452    -0.44000
C353        C  0.99846135  0.50343384  0.69382548    -0.00400
C354        C  0.99278543  0.55285167  0.72913270    -0.12300
C355        C  0.99535042  0.55159769  0.78103737     0.01800
C356        C  0.00342742  0.49968439  0.79899905    -0.00500
C357        C  0.00931889  0.45022176  0.76364916    -0.12200
C358        C  0.00684320  0.45153720  0.71158353     0.01700
H359        H  0.98686805  0.59317341  0.71595713     0.14700
H360        H  0.01527477  0.40996644  0.77689630     0.14700
C361        C  0.01106379  0.39830590  0.67825587     0.36400
C362        C  0.99159313  0.60511201  0.81399722     0.36300
N363        N  0.01442232  0.35548363  0.65182041    -0.44000
N364        N  0.98869403  0.64811351  0.84021184    -0.44000
C365        C  0.99540652  0.50876626  0.19556196    -0.00400
C366        C  0.00313191  0.45485833  0.20926346    -0.12300
C367        C  0.00565218  0.44715601  0.26026293     0.01800
C368        C  0.00092944  0.49440075  0.29878210    -0.00500
C369        C  0.99343382  0.54832291  0.28489750    -0.12200
C370        C  0.99076656  0.55594242  0.23401739     0.01700
H371        H  0.00603699  0.41807074  0.18033605     0.15500
H372        H  0.99060456  0.58523618  0.31368527     0.14700
C373        C  0.98530954  0.61336989  0.22197678     0.36400
C374        C  0.01114899  0.38969336  0.27220784     0.36300
N375        N  0.98104168  0.65938171  0.21223454    -0.44000
N376        N  0.01543659  0.34358427  0.28170679    -0.44000
C377        C  0.01501714  0.81264433  0.49098820    -0.00400
C378        C  0.02595200  0.78979428  0.53302565    -0.12300
C379        C  0.01396843  0.72942516  0.54106528     0.01800
C380        C  0.98960130  0.69070611  0.50710194    -0.00500
C381        C  0.97926345  0.71351751  0.46474194    -0.12200
C382        C  0.99148744  0.77377187  0.45654088     0.01700
H383        H  0.04506941  0.81907971  0.55899883     0.14700
H384        H  0.96020273  0.68429824  0.43868898     0.14700
C385        C  0.97713854  0.79463672  0.41393931     0.36400
C386        C  0.02946524  0.70828915  0.58282443     0.36300
N387        N  0.96544921  0.81126911  0.37989093    -0.44000
N388        N  0.04233595  0.69156792  0.61606881    -0.44000
C389        C  0.98149306  0.19024706  0.51045076    -0.00400
C390        C  0.02047987  0.20703677  0.46279225    -0.12300
C391        C  0.03715640  0.26607537  0.45045936     0.01800
C392        C  0.01439518  0.31020170  0.48620488    -0.00500
C393        C  0.97485165  0.29328921  0.53354667    -0.12200
C394        C  0.95825959  0.23427205  0.54590937     0.01700
H395        H  0.03889315  0.17386655  0.43523674     0.14700
H396        H  0.95633338  0.32638031  0.56112352     0.14700
C397        C  0.91631266  0.22063768  0.59457956     0.36400
C398        C  0.07903049  0.27961188  0.40173446     0.36300
N399        N  0.88274271  0.21019724  0.63369840    -0.44000
N400        N  0.11263230  0.29011444  0.36265011    -0.44000
C401        C  0.69619427  0.98401188  0.49887054    -0.00400
C402        C  0.71264304  0.03257540  0.52968191    -0.12300
C403        C  0.76448449  0.04370248  0.53479178     0.01800
C404        C  0.80079165  0.00512818  0.50936270    -0.00500
C405        C  0.78439710  0.95672995  0.47837036    -0.12200
C406        C  0.73260768  0.94565678  0.47319808     0.01700
H407        H  0.68536075  0.06296183  0.54863710     0.14700
H408        H  0.81171525  0.92643711  0.45924639     0.14700
C409        C  0.71733118  0.89317309  0.44330264     0.36400
C410        C  0.77988002  0.09654688  0.56416322     0.36300
N411        N  0.70519153  0.85092153  0.41953381    -0.44000
N412        N  0.79174628  0.13925089  0.58750103    -0.44000
C413        C  0.30181083  0.99765594  0.50646076    -0.00400
C414        C  0.25705175  0.99229347  0.55164058    -0.12300
C415        C  0.20528212  0.98980071  0.54793637     0.01800
C416        C  0.19693413  0.99185684  0.49779526    -0.00500
C417        C  0.24172117  0.99669062  0.45251203    -0.12200
C418        C  0.29362454  0.00012671  0.45634988     0.01700
H419        H  0.26237493  0.98993571  0.59044878     0.14700
H420        H  0.23644158  0.99916510  0.41371388     0.14700
C421        C  0.33751737  0.00900257  0.40837865     0.36400
C422        C  0.16202471  0.98451988  0.59656716     0.36300
N423        N  0.37249114  0.01647860  0.36982452    -0.44000
N424        N  0.12811815  0.98070916  0.63615255    -0.44000
C425        C  0.98661433  0.69631984  0.00859323    -0.00400
C426        C  0.02652667  0.71489814  0.96206523    -0.12300
C427        C  0.04387977  0.77463096  0.95220470     0.01800
C428        C  0.02105258  0.81772724  0.98949056    -0.00500
C429        C  0.98104721  0.79897088  0.03594733    -0.12200
C430        C  0.96357728  0.73933105  0.04564982     0.01700
H431        H  0.04479832  0.68255899  0.93331241     0.14700
H432        H  0.96236888  0.83106852  0.06468432     0.14700
C433        C  0.92037712  0.72397128  0.09303843     0.36400
C434        C  0.08585021  0.78980880  0.90390661     0.36300
N435        N  0.88568822  0.71174669  0.13095649    -0.44000
N436        N  0.11938697  0.80172500  0.86508577    -0.44000
C437        C  0.98965239  0.19508421  0.00577383    -0.00400
C438        C  0.01718603  0.23256002  0.03742125    -0.12300
C439        C  0.03216197  0.29272922  0.02890263     0.01800
C440        C  0.01915081  0.31656825  0.98827996    -0.00500
C441        C  0.99233392  0.27917201  0.95615353    -0.12200
C442        C  0.97723429  0.21902555  0.96465480     0.01700
H443        H  0.02764075  0.21466790  0.06854158     0.14700
H444        H  0.98196023  0.29730153  0.92509055     0.14700
C445        C  0.94672611  0.18375723  0.93224483     0.36400
C446        C  0.06283841  0.32862714  0.06084512     0.36300
N447        N  0.92210132  0.15575758  0.90633557    -0.44000
N448        N  0.08768135  0.35749712  0.08611189    -0.44000
C449        C  0.80480668  0.01752958  0.00656496    -0.00400
C450        C  0.79963313  0.02464496  0.95641148    -0.12300
C451        C  0.74917698  0.02044521  0.94859023     0.01800
C452        C  0.70214513  0.00690703  0.99138860    -0.00500
C453        C  0.70764460  0.00074549  0.04173566    -0.12200
C454        C  0.75806526  0.00625257  0.04971353     0.01700
H455        H  0.83527311  0.03460473  0.92330535     0.14700
H456        H  0.67234816  0.99056124  0.07511891     0.14700
C457        C  0.76034139  0.99787139  0.10235142     0.36400
C458        C  0.74746697  0.03248052  0.89662813     0.36300
N459        N  0.76208910  0.99134453  0.14458380    -0.44000
N460        N  0.74632989  0.04253513  0.85502016    -0.44000
C461        C  0.19992044  0.00358676  0.99770940    -0.00400
C462        C  0.21191539  0.03925124  0.04016080    -0.12300
C463        C  0.26218345  0.04516045  0.04896134     0.01800
C464        C  0.30217501  0.01513951  0.01440672    -0.00500
C465        C  0.28957564  0.97892003  0.97247797    -0.12200
C466        C  0.23929770  0.97241482  0.96422766     0.01700
H467        H  0.18201839  0.06312254  0.06642270     0.14700
H468        H  0.31887967  0.95433183  0.94622842     0.14700
C469        C  0.22883256  0.93112826  0.92241335     0.36400
C470        C  0.27108913  0.08273642  0.09352489     0.36300
N471        N  0.22051291  0.89785124  0.88903767    -0.44000
N472        N  0.27781583  0.11269077  0.12946813    -0.44000
C473        C  0.00532041  0.99695150  0.80340592    -0.00400
C474        C  0.99122229  0.04797316  0.79099421    -0.12300
C475        C  0.98758563  0.05468187  0.74036595     0.01800
C476        C  0.99759811  0.00913265  0.70065429    -0.00500
C477        C  0.01193207  0.95818753  0.71300704    -0.12200
C478        C  0.01638852  0.95187100  0.76344105     0.01700
H479        H  0.98380800  0.08349149  0.82082095     0.14700
H480        H  0.01924381  0.92261069  0.68320791     0.14700
C481        C  0.03126491  0.89803423  0.77281103     0.36400
C482        C  0.97466279  0.10946571  0.73055384     0.36300
N483        N  0.04340928  0.85486099  0.77987300    -0.44000
N484        N  0.96425332  0.15346436  0.72306165    -0.44000
C485        C  0.00038995  0.99696110  0.30504661    -0.00400
C486        C  0.03918168  0.97751260  0.26081274    -0.12300
C487        C  0.03798425  0.98269262  0.20896653     0.01800
C488        C  0.99669971  0.00740037  0.20021342    -0.00500
C489        C  0.95757168  0.02629149  0.24444675    -0.12200
C490        C  0.95894367  0.02142513  0.29631554     0.01700
H491        H  0.07161026  0.95919354  0.26653768     0.14700
H492        H  0.92519523  0.04465088  0.23865304     0.14700
C493        C  0.91664005  0.04126084  0.33930004     0.36400
C494        C  0.08088977  0.96394192  0.16600880     0.36300
N495        N  0.88262522  0.05738648  0.37341236    -0.44000
N496        N  0.11549782  0.94885852  0.13193672    -0.44000
loop_ 
_geom_bond_atom_site_label_1 
_geom_bond_atom_site_label_2 
_geom_bond_distance 
_geom_bond_site_symmetry_2 
_ccdc_geom_bond_type 
O1           Ni7   1.933       .  S
O1           C22   1.273       .  A
O2          Ni25   1.898       .  S
O2           C11   1.266   1_645  A
O3           Ni7   1.916   1_565  S
O3          Ni25   1.906   1_564  S
O3          Ni19   1.909   1_665  S
O3           H26   0.967       .  S
C4           O21   1.273   1_566  A
C4           O13   1.273       .  A
C4          C461   1.487   1_565  S
O5          Ni24   1.924       .  S
O5           C11   1.268       .  A
O6          Ni24   1.906       .  S
O6            C8   1.268       .  A
Ni7          O10   1.932       .  S
Ni7          O12   1.908       .  S
C8           O18   1.271   1_556  A
C8          C428   1.491       .  S
O9          Ni25   1.907       .  S
O9           C15   1.273   1_556  A
O10          C15   1.275       .  A
C11         C473   1.481       .  S
O12          C14   1.269       .  A
O13         Ni24   1.917       .  S
C14          O20   1.271   1_554  A
C14         C437   1.483       .  S
C15         C449   1.483       .  S
H16          O17   0.966       .  S
O17         Ni25   1.911   1_455  S
O17         Ni19   1.908   1_556  S
O17         Ni24   1.920   1_545  S
O18         Ni19   1.922   1_565  S
Ni19         O23   1.893   1_545  S
Ni19         O21   1.916       .  S
O20         Ni25   1.929       .  S
C22          O23   1.264   1_645  A
C22         C488   1.487       .  S
O27         Ni33   1.926       .  S
O27          C48   1.270       .  A
O28         Ni51   1.895       .  S
O28          C37   1.263   1_645  A
O29         Ni33   1.922   1_565  S
O29         Ni51   1.904   1_565  S
O29         Ni45   1.908   1_655  S
O29          H52   0.966       .  S
C30          O47   1.272   1_565  A
C30          O39   1.274       .  A
C30         C416   1.491       .  S
O31         Ni50   1.930       .  S
O31          C37   1.271       .  A
O32         Ni50   1.901       .  S
O32          C34   1.268       .  A
Ni33         O36   1.924       .  S
Ni33         O38   1.904       .  S
C34          O44   1.273       .  A
C34         C377   1.481       .  S
O35         Ni51   1.906   1_565  S
O35          C41   1.272   1_565  A
O36          C41   1.274       .  A
C37         C485   1.487       .  S
O38          C40   1.267       .  A
O39         Ni50   1.924       .  S
C40          O46   1.270       .  A
C40         C389   1.484       .  S
C41         C404   1.477       .  S
H42          O43   0.967       .  S
O43         Ni51   1.912   1_455  S
O43         Ni45   1.911   1_545  S
O43         Ni50   1.920   1_545  S
O44         Ni45   1.932       .  S
Ni45         O49   1.898       .  S
Ni45         O47   1.911   1_565  S
O46         Ni51   1.921       .  S
C48          O49   1.267   1_645  A
C48         C476   1.483       .  S
O53         Ni59   1.928       .  S
O53          C74   1.270       .  A
O54         Ni77   1.900       .  S
O54          C63   1.266   1_655  A
O55         Ni59   1.921       .  S
O55         Ni77   1.911   1_554  S
O55         Ni71   1.911   1_655  S
O55          H78   0.966       .  S
C56          O73   1.272   1_556  A
C56          O65   1.277       .  A
C56         C344   1.492       .  S
O57         Ni76   1.931       .  S
O57          C63   1.271       .  A
O58         Ni76   1.906       .  S
O58          C60   1.267       .  A
Ni59         O62   1.924       .  S
Ni59         O64   1.904       .  S
C60          O70   1.269   1_556  A
C60         C440   1.478       .  S
O61         Ni77   1.901       .  S
O61          C67   1.270   1_556  A
O62          C67   1.274       .  A
C63         C356   1.484       .  S
O64          C66   1.268       .  A
O65         Ni76   1.925       .  S
C66          O72   1.272   1_554  A
C66         C425   1.488       .  S
C67         C329   1.484       .  S
H68          O69   0.967       .  S
O69         Ni77   1.901   1_455  S
O69         Ni71   1.904   1_556  S
O69         Ni76   1.916       .  S
O70         Ni71   1.922       .  S
Ni71         O75   1.900       .  S
Ni71         O73   1.905       .  S
O72         Ni77   1.929       .  S
C74          O75   1.265   1_655  A
C74         C365   1.482       .  S
O79         Ni85   1.927       .  S
O79         C100   1.270       .  A
O80        Ni103   1.903       .  S
O80          C89   1.267   1_655  A
O81         Ni85   1.916       .  S
O81        Ni103   1.909       .  S
O81         Ni97   1.906   1_655  S
O81         H104   0.967       .  S
C82          O99   1.271       .  A
C82          O91   1.276       .  A
C82         C317   1.489       .  S
O83        Ni102   1.929       .  S
O83          C89   1.270       .  A
O84        Ni102   1.908       .  S
O84          C86   1.268       .  A
Ni85         O88   1.928       .  S
Ni85         O90   1.903       .  S
C86          O96   1.269       .  A
C86         C392   1.486       .  S
O87        Ni103   1.905       .  S
O87          C93   1.272       .  A
O88          C93   1.276       .  A
C89         C368   1.484       .  S
O90          C92   1.267       .  A
O91        Ni102   1.921       .  S
C92          O98   1.272       .  A
C92         C380   1.481       .  S
C93         C305   1.489       .  S
H94          O95   0.966       .  S
O95        Ni103   1.904   1_455  S
O95         Ni97   1.906       .  S
O95        Ni102   1.918       .  S
O96         Ni97   1.916       .  S
Ni97        O101   1.903       .  S
Ni97         O99   1.903       .  S
O98        Ni103   1.929       .  S
C100        O101   1.265   1_655  A
C100        C353   1.483       .  S
O105       Ni111   1.930       .  S
O105        C126   1.272       .  A
O106       Ni129   1.900       .  S
O106        C115   1.265   1_545  A
O107       Ni111   1.916   1_565  S
O107       Ni129   1.906   1_564  S
O107       Ni123   1.913       .  S
O107        H130   0.967       .  S
C108        O125   1.277   1_566  A
C108        O117   1.275       .  A
C108        C452   1.492   1_565  S
O109       Ni128   1.928       .  S
O109        C115   1.271       .  A
O110       Ni128   1.911       .  S
O110        C112   1.268       .  A
Ni111       O114   1.935       .  S
Ni111       O116   1.907       .  S
C112        O122   1.272   1_556  A
C112        C260   1.488       .  S
O113       Ni129   1.901   1_565  S
O113        C119   1.272   1_566  A
O114        C119   1.275       .  A
C115        C284   1.489       .  S
O116        C118   1.268       .  A
O117       Ni128   1.921       .  S
C118        O124   1.273   1_554  A
C118        C269   1.490       .  S
C119        C464   1.493       .  S
H120        O121   0.966       .  S
O121       Ni129   1.905       .  S
O121       Ni123   1.903   1_546  S
O121       Ni128   1.913   1_545  S
O122       Ni123   1.929       .  S
Ni123       O127   1.899       .  S
Ni123       O125   1.918   1_565  S
O124       Ni129   1.936       .  S
C126        O127   1.267   1_545  A
C126        C293   1.480       .  S
O131       Ni137   1.927       .  S
O131        C152   1.270   1_545  A
O132       Ni155   1.899   1_545  S
O132        C141   1.266   1_545  A
O133       Ni137   1.920   1_565  S
O133       Ni155   1.910       .  S
O133       Ni149   1.908       .  S
O133        H156   0.966       .  S
C134        O151   1.272       .  A
C134        O143   1.273       .  A
C134        C401   1.477       .  S
O135       Ni154   1.927       .  S
O135        C141   1.269       .  A
O136       Ni154   1.903       .  S
O136        C138   1.268       .  A
Ni137       O140   1.922       .  S
Ni137       O142   1.906       .  S
C138        O148   1.272       .  A
C138        C236   1.494       .  S
O139       Ni155   1.910       .  S
O139        C145   1.272   1_565  A
O140        C145   1.274       .  A
C141        C296   1.480       .  S
O142        C144   1.268       .  A
O143       Ni154   1.922       .  S
C144        O150   1.274       .  A
C144        C245   1.491       .  S
C145        C413   1.488   1_545  S
H146        O147   0.967       .  S
O147       Ni155   1.907   1_545  S
O147       Ni149   1.908   1_545  S
O147       Ni154   1.922   1_545  S
O148       Ni149   1.932       .  S
Ni149       O153   1.902       .  S
Ni149       O151   1.906       .  S
O150       Ni155   1.934   1_545  S
C152        O153   1.266       .  A
C152        C281   1.491       .  S
O157       Ni163   1.928       .  S
O157        C178   1.273       .  A
O158       Ni181   1.897       .  S
O158        C167   1.265       .  A
O159       Ni163   1.917       .  S
O159       Ni181   1.906   1_554  S
O159       Ni175   1.918       .  S
O159        H182   0.967       .  S
C160        O177   1.275   1_556  A
C160        O169   1.274       .  A
C160        C332   1.481       .  S
O161       Ni180   1.924       .  S
O161        C167   1.268       .  A
O162       Ni180   1.908       .  S
O162        C164   1.267       .  A
Ni163       O166   1.939       .  S
Ni163       O168   1.909       .  S
C164        O174   1.272   1_556  A
C164        C272   1.496       .  S
O165       Ni181   1.893       .  S
O165        C171   1.265   1_556  A
O166        C171   1.275       .  A
C167        C209   1.481       .  S
O168        C170   1.270       .  A
O169       Ni180   1.914       .  S
C170        O176   1.278   1_554  A
C170        C257   1.495       .  S
C171        C341   1.488   1_554  S
H172        O173   0.967       .  S
O173       Ni181   1.896       .  S
O173       Ni175   1.903   1_556  S
O173       Ni180   1.917       .  S
O174       Ni175   1.928       .  S
Ni175       O179   1.901       .  S
Ni175       O177   1.914       .  S
O176       Ni181   1.948       .  S
C178        O179   1.268       .  A
C178        C221   1.489       .  S
O183       Ni189   1.915       .  S
O183        C204   1.268       .  A
O184       Ni207   1.893       .  S
O184        C193   1.265       .  A
O185       Ni189   1.923       .  S
O185       Ni207   1.907       .  S
O185       Ni201   1.916       .  S
O185        H208   0.967       .  S
C186        O203   1.270       .  A
C186        O195   1.275       .  A
C186        C308   1.489       .  S
O187       Ni206   1.935       .  S
O187        C193   1.271       .  A
O188       Ni206   1.905       .  S
O188        C190   1.269       .  A
Ni189       O192   1.925       .  S
Ni189       O194   1.899       .  S
C190        O200   1.276       .  A
C190        C248   1.493       .  S
O191       Ni207   1.899       .  S
O191        C197   1.266       .  A
O192        C197   1.271       .  A
C193        C224   1.490       .  S
O194        C196   1.269       .  A
O195       Ni206   1.928       .  S
C196        O202   1.276       .  A
C196        C233   1.490       .  S
C197        C320   1.485       .  S
H198        O199   0.968       .  S
O199       Ni207   1.904       .  S
O199       Ni201   1.911       .  S
O199       Ni206   1.922       .  S
O200       Ni201   1.942       .  S
Ni201       O205   1.902       .  S
Ni201       O203   1.906       .  S
O202       Ni207   1.947       .  S
C204        O205   1.268       .  A
C204        C212   1.476       .  S
C209        C210   1.404       .  A
C209        C214   1.416       .  A
C210        C211   1.396       .  A
C210        H215   1.085       .  S
C211        C212   1.414       .  A
C211        C218   1.446       .  S
C212        C213   1.402       .  A
C213        C214   1.398       .  A
C213        H216   1.085       .  S
C214        C217   1.444       .  S
C217        N219   1.157       .  T
C218        N220   1.157       .  T
C221        C222   1.407       .  A
C221        C226   1.416       .  A
C222        C223   1.402       .  A
C222        H227   1.085       .  S
C223        C224   1.416       .  A
C223        C230   1.444       .  S
C224        C225   1.406       .  A
C225        C226   1.398       .  A
C225        H228   1.085       .  S
C226        C229   1.445       .  S
C229        N231   1.157       .  T
C230        N232   1.157       .  T
C233        C234   1.407       .  A
C233        C238   1.414       .  A
C234        C235   1.401       .  A
C234        H239   1.085       .  S
C235        C236   1.417       .  A
C235        C242   1.445       .  S
C236        C237   1.409       .  A
C237        C238   1.402       .  A
C237        H240   1.084       .  S
C238        C241   1.445       .  S
C241        N243   1.157       .  T
C242        N244   1.157       .  T
C245        C246   1.404       .  A
C245        C250   1.417       .  A
C246        C247   1.402       .  A
C246        H251   1.085       .  S
C247        C248   1.417       .  A
C247        C254   1.444       .  S
C248        C249   1.406       .  A
C249        C250   1.404       .  A
C249        H252   1.085       .  S
C250        C253   1.445       .  S
C253        N255   1.157       .  T
C254        N256   1.157       .  T
C257        C258   1.408   1_554  A
C257        C262   1.418       .  A
C258        C259   1.403       .  A
C258        H263   1.085       .  S
C259        C260   1.414       .  A
C259        C266   1.445       .  S
C260        C261   1.405   1_556  A
C261        C262   1.405       .  A
C261        H264   1.085       .  S
C262        C265   1.445       .  S
C265        N267   1.157       .  T
C266        N268   1.157       .  T
C269        C270   1.406   1_554  A
C269        C274   1.414       .  A
C270        C271   1.405       .  A
C270        H275   1.085       .  S
C271        C272   1.420       .  A
C271        C278   1.445       .  S
C272        C273   1.407   1_556  A
C273        C274   1.400       .  A
C273        H276   1.085       .  S
C274        C277   1.444       .  S
C277        N279   1.157       .  T
C278        N280   1.158       .  T
C281        C282   1.409   1_565  A
C281        C286   1.416       .  A
C282        C283   1.399       .  A
C282        H287   1.085       .  S
C283        C284   1.416   1_545  A
C283        C290   1.446       .  S
C284        C285   1.407       .  A
C285        C286   1.399       .  A
C285        H288   1.085       .  S
C286        C289   1.445       .  S
C289        N291   1.157       .  T
C290        N292   1.158       .  T
C293        C294   1.405   1_545  A
C293        C298   1.413       .  A
C294        C295   1.401       .  A
C294        H299   1.085       .  S
C295        C296   1.415       .  A
C295        C302   1.445       .  S
C296        C297   1.403   1_565  A
C297        C298   1.397       .  A
C297        H300   1.085       .  S
C298        C301   1.445       .  S
C301        N303   1.157       .  T
C302        N304   1.158       .  T
C305        C306   1.408       .  A
C305        C310   1.415       .  A
C306        C307   1.401       .  A
C306        H311   1.085       .  S
C307        C308   1.415       .  A
C307        C314   1.444       .  S
C308        C309   1.407       .  A
C309        C310   1.399       .  A
C309        H312   1.085       .  S
C310        C313   1.444       .  S
C313        N315   1.157       .  T
C314        N316   1.157       .  T
C317        C318   1.408       .  A
C317        C322   1.417       .  A
C318        C319   1.398       .  A
C318        H323   1.084       .  S
C319        C320   1.414       .  A
C319        C326   1.444       .  S
C320        C321   1.406       .  A
C321        C322   1.396       .  A
C321        H324   1.085       .  S
C322        C325   1.446       .  S
C325        N327   1.158       .  T
C326        N328   1.157       .  T
C329        C330   1.408       .  A
C329        C334   1.415   1_554  A
C330        C331   1.401       .  A
C330        H335   1.085       .  S
C331        C332   1.413   1_554  A
C331        C338   1.445       .  S
C332        C333   1.405       .  A
C333        C334   1.396       .  A
C333        H336   1.085       .  S
C334        C337   1.445       .  S
C337        N339   1.157       .  T
C338        N340   1.158       .  T
C341        C342   1.406   1_556  A
C341        C346   1.416       .  A
C342        C343   1.400       .  A
C342        H347   1.085       .  S
C343        C344   1.418   1_554  A
C343        C350   1.445       .  S
C344        C345   1.408       .  A
C345        C346   1.397       .  A
C345        H348   1.084       .  S
C346        C349   1.445       .  S
C349        N351   1.157       .  T
C350        N352   1.157       .  T
C353        C354   1.405       .  A
C353        C358   1.414   1_655  A
C354        C355   1.397       .  A
C354        H359   1.085       .  S
C355        C356   1.414   1_655  A
C355        C362   1.445       .  S
C356        C357   1.407       .  A
C357        C358   1.401       .  A
C357        H360   1.085       .  S
C358        C361   1.445       .  S
C361        N363   1.158       .  T
C362        N364   1.157       .  T
C365        C366   1.405   1_655  A
C365        C370   1.414       .  A
C366        C367   1.401       .  A
C366        H371   1.085       .  S
C367        C368   1.416       .  A
C367        C374   1.445       .  S
C368        C369   1.405   1_455  A
C369        C370   1.398       .  A
C369        H372   1.085       .  S
C370        C373   1.445       .  S
C373        N375   1.157       .  T
C374        N376   1.158       .  T
C377        C378   1.404       .  A
C377        C382   1.414   1_455  A
C378        C379   1.401       .  A
C378        H383   1.085       .  S
C379        C380   1.415   1_455  A
C379        C386   1.445       .  S
C380        C381   1.403       .  A
C381        C382   1.399       .  A
C381        H384   1.085       .  S
C382        C385   1.444       .  S
C385        N387   1.157       .  T
C386        N388   1.158       .  T
C389        C390   1.406   1_655  A
C389        C394   1.414       .  A
C390        C391   1.399       .  A
C390        H395   1.085       .  S
C391        C392   1.415       .  A
C391        C398   1.444       .  S
C392        C393   1.407   1_455  A
C393        C394   1.399       .  A
C393        H396   1.085       .  S
C394        C397   1.445       .  S
C397        N399   1.157       .  T
C398        N400   1.157       .  T
C401        C402   1.403   1_565  A
C401        C406   1.413       .  A
C402        C403   1.399       .  A
C402        H407   1.085       .  S
C403        C404   1.414       .  A
C403        C410   1.444       .  S
C404        C405   1.403   1_545  A
C405        C406   1.398       .  A
C405        H408   1.085       .  S
C406        C409   1.444       .  S
C409        N411   1.157       .  T
C410        N412   1.157       .  T
C413        C414   1.407       .  A
C413        C418   1.414   1_565  A
C414        C415   1.399       .  A
C414        H419   1.085       .  S
C415        C416   1.415       .  A
C415        C422   1.442       .  S
C416        C417   1.408       .  A
C417        C418   1.401   1_565  A
C417        H420   1.085       .  S
C418        C421   1.444       .  S
C421        N423   1.157       .  T
C422        N424   1.156       .  T
C425        C426   1.406   1_654  A
C425        C430   1.415       .  A
C426        C427   1.402       .  A
C426        H431   1.085       .  S
C427        C428   1.418       .  A
C427        C434   1.444       .  S
C428        C429   1.407   1_456  A
C429        C430   1.399       .  A
C429        H432   1.085       .  S
C430        C433   1.445       .  S
C433        N435   1.157       .  T
C434        N436   1.157       .  T
C437        C438   1.405   1_655  A
C437        C442   1.417   1_554  A
C438        C439   1.401       .  A
C438        H443   1.085       .  S
C439        C440   1.412   1_554  A
C439        C446   1.445       .  S
C440        C441   1.402   1_455  A
C441        C442   1.400       .  A
C441        H444   1.085       .  S
C442        C445   1.445       .  S
C445        N447   1.157       .  T
C446        N448   1.157       .  T
C449        C450   1.402   1_554  A
C449        C454   1.414       .  A
C450        C451   1.402       .  A
C450        H455   1.085       .  S
C451        C452   1.420       .  A
C451        C458   1.445       .  S
C452        C453   1.406   1_556  A
C453        C454   1.399       .  A
C453        H456   1.085   1_545  S
C454        C457   1.445   1_545  S
C457        N459   1.157       .  T
C458        N460   1.157       .  T
C461        C462   1.405   1_556  A
C461        C466   1.415   1_545  A
C462        C463   1.404       .  A
C462        H467   1.085       .  S
C463        C464   1.420       .  A
C463        C470   1.444       .  S
C464        C465   1.406   1_544  A
C465        C466   1.396       .  A
C465        H468   1.085       .  S
C466        C469   1.445       .  S
C469        N471   1.157       .  T
C470        N472   1.158       .  T
C473        C474   1.404   1_465  A
C473        C478   1.415       .  A
C474        C475   1.397       .  A
C474        H479   1.085       .  S
C475        C476   1.416       .  A
C475        C482   1.445       .  S
C476        C477   1.405   1_645  A
C477        C478   1.398       .  A
C477        H480   1.085       .  S
C478        C481   1.445       .  S
C481        N483   1.158       .  T
C482        N484   1.157       .  T
C485        C486   1.406       .  A
C485        C490   1.416   1_465  A
C486        C487   1.398       .  A
C486        H491   1.085       .  S
C487        C488   1.416   1_465  A
C487        C494   1.445       .  S
C488        C489   1.407       .  A
C489        C490   1.399       .  A
C489        H492   1.085       .  S
C490        C493   1.445       .  S
C493        N495   1.158       .  T
C494        N496   1.157       .  T
