geometry optimzed in LAMMPS
_audit_creation_date              2020-11-30 
_audit_creation_method            'lammps2cif' 
_symmetry_space_group_name_H-M    'P1' 
_symmetry_Int_Tables_number       1 
_symmetry_cell_setting            triclinic 
loop_ 
_symmetry_equiv_pos_as_xyz 
  x,y,z 
_cell_length_a                    50.85905635 
_cell_length_b                    50.40625968944462 
_cell_length_c                    32.43461608513813 
_cell_angle_alpha                 90.06673090544942 
_cell_angle_beta                  90.90142387546366 
_cell_angle_gamma                 90.04843346797753 
loop_ 
_atom_site_label 
_atom_site_type_symbol 
_atom_site_fract_x 
_atom_site_fract_y 
_atom_site_fract_z 
_atom_site_charge 
O1          O  0.24961485  0.20179085  0.38662692    -0.86300
O2          O  0.25752616  0.20955635  0.62305993    -0.86500
O3          O  0.29182620  0.17314504  0.49967126    -0.88100
O4          O  0.20860123  0.17972032  0.50564685    -0.86900
O5          O  0.17971450  0.21409911  0.50190443    -0.86500
O6          O  0.32546064  0.20264899  0.49341712    -0.87900
O7          O  0.25323018  0.17791231  0.57207672    -0.86300
O8          O  0.24732390  0.17327915  0.44188618    -0.85900
Zr9        Zr  0.25217033  0.19894986  0.50517899     2.84300
O10         O  0.22976387  0.22844307  0.54788403    -1.07900
O11         O  0.27867032  0.22137408  0.45845000    -1.08600
C12         C  0.24739857  0.17820609  0.40286140     1.06800
C13         C  0.25547293  0.18502745  0.61011642     1.06800
C14         C  0.31606216  0.17890720  0.49382927     1.09700
C15         C  0.18517408  0.18921342  0.50206575     1.07500
H16         H  0.29289085  0.21279725  0.56118674     0.33100
O17         O  0.28185921  0.22433017  0.54494093    -1.28800
H18         H  0.21492034  0.21473580  0.44560383     0.32700
O19         O  0.22723825  0.22566141  0.46097503    -1.30500
O20         O  0.26205695  0.30160067  0.61587202    -0.86300
O21         O  0.25369110  0.29306574  0.37985824    -0.87800
O22         O  0.33321089  0.24828993  0.56077114    -0.86400
O23         O  0.18279199  0.25726284  0.56883169    -0.86400
O24         O  0.18010349  0.25345930  0.43843645    -0.86100
O25         O  0.32894009  0.24268174  0.43150445    -0.85900
O26         O  0.30416696  0.32183858  0.48870992    -0.86300
O27         O  0.21996271  0.32849446  0.49517708    -0.85800
O28         O  0.33333136  0.28733443  0.48963358    -0.86800
O29         O  0.18608489  0.29908070  0.49985966    -0.86000
O30         O  0.30645204  0.25396303  0.61652269    -0.86400
O31         O  0.29759553  0.24421632  0.37962366    -0.86100
O32         O  0.20817402  0.24933616  0.38379640    -0.85800
O33         O  0.21421389  0.25659503  0.62077031    -0.86200
O34         O  0.26318959  0.32886431  0.55948891    -0.86500
O35         O  0.25805921  0.32489108  0.43053158    -0.87800
Zr36       Zr  0.25935550  0.25435198  0.58868635     2.83100
Zr37       Zr  0.25365213  0.24833508  0.41345009     2.83500
Zr38       Zr  0.30780825  0.24710289  0.49754219     2.84100
Zr39       Zr  0.20468015  0.25502487  0.50320019     2.83400
Zr40       Zr  0.26037176  0.30326262  0.49663905     2.84200
O41         O  0.23095486  0.27797440  0.45680263    -1.08400
O42         O  0.28594848  0.27684883  0.54057651    -1.07900
C43         C  0.26349566  0.32511117  0.59869039     1.06800
C44         C  0.25530568  0.31756017  0.39272114     1.09400
C45         C  0.32961643  0.25116258  0.59972724     1.07000
C46         C  0.18979940  0.25763323  0.60719166     1.07300
C47         C  0.18486421  0.25080246  0.39969122     1.06900
C48         C  0.32185893  0.24244549  0.39322348     1.06400
C49         C  0.32756596  0.31211821  0.48653840     1.06900
C50         C  0.19536953  0.32276362  0.49673167     1.06400
H51         H  0.29409012  0.28388155  0.43555916     0.33100
O52         O  0.28289230  0.27413262  0.45369096    -1.29500
H53         H  0.22376011  0.29328828  0.55895354     0.33100
O54         O  0.23369506  0.28078300  0.54322218    -1.30900
N55         N  0.51102384  0.46189059  0.42607467    -0.36400
N56         N  0.04471004  0.00704708  0.41975802    -0.57000
N57         N  0.50058601  0.04316050  0.41874707    -0.36400
N58         N  0.46537739  0.99785714  0.42246338    -0.57000
C59         C  0.03384253  0.44956483  0.43592772     0.27200
C60         C  0.49133432  0.44547641  0.43725063     0.27200
C61         C  0.02037181  0.05994465  0.42915847     0.27200
C62         C  0.47793680  0.05503261  0.42965406     0.27200
C63         C  0.06455169  0.48655407  0.42105342     0.35800
C64         C  0.05773639  0.03001501  0.41410529     0.35800
C65         C  0.45402940  0.47626147  0.42552128     0.35800
C66         C  0.44745667  0.01724635  0.41695422     0.35800
C67         C  0.02859510  0.42485011  0.45275772    -0.21700
C68         C  0.50174151  0.42227703  0.45357505    -0.21700
C69         C  0.01011557  0.08309391  0.44550149    -0.21700
C70         C  0.48330500  0.07997724  0.44588707    -0.21700
C71         C  0.08923184  0.49673967  0.41279504    -0.22800
C72         C  0.08389169  0.02501427  0.40554313    -0.22800
C73         C  0.42776817  0.48202005  0.41778492    -0.22800
C74         C  0.42279106  0.00647292  0.40910270    -0.22800
C75         C  0.05929892  0.45971393  0.42922841    -0.18100
C76         C  0.46422012  0.45056987  0.43193474    -0.18100
C77         C  0.45247994  0.04425967  0.42448196    -0.18100
C78         C  0.04740550  0.05513111  0.42362700    -0.18100
H79         H  0.04264377  0.41016784  0.46342832     0.14800
H80         H  0.49109942  0.40529174  0.46507666     0.14800
H81         H  0.02080926  0.10039722  0.45628438     0.14800
H82         H  0.46938184  0.09441211  0.45711464     0.14800
H83         H  0.10711624  0.48575106  0.40726857     0.13100
H84         H  0.09944096  0.03936150  0.40117304     0.13100
H85         H  0.41178220  0.46813850  0.41277825     0.13100
H86         H  0.40442654  0.01700312  0.40461805     0.13100
H87         H  0.50906206  0.47938726  0.40933761     0.26300
H88         H  0.50222902  0.02559616  0.40215340     0.26300
O89         O  0.49622705  0.45088034  0.88364922    -0.86300
O90         O  0.50514593  0.44702426  0.12113283    -0.86500
O91         O  0.04701286  0.42317306  0.99745222    -0.88100
O92         O  0.46358001  0.41774297  0.01198245    -0.86900
O93         O  0.43016053  0.44783532  0.01427955    -0.86500
O94         O  0.07628456  0.45742177  0.99450828    -0.87900
O95         O  0.50674444  0.41804325  0.06630450    -0.86300
O96         O  0.50004125  0.42052477  0.93633892    -0.85900
Zr97       Zr  0.50342139  0.44264734  0.00215630     2.84300
O98         O  0.47750260  0.46661234  0.04770259    -1.07900
O99         O  0.02545853  0.47094232  0.95735346    -1.08600
C100        C  0.49745017  0.42656088  0.89790156     1.06800
C101        C  0.50649862  0.42326656  0.10521728     1.06800
C102        C  0.07046480  0.43264013  0.99475481     1.09700
C103        C  0.43932438  0.42407263  0.01675269     1.07500
H104        H  0.04237850  0.45821336  0.06019997     0.33100
O105        O  0.02976929  0.46909608  0.04512518    -1.28800
H106        H  0.46201393  0.45577838  0.94611087     0.32700
O107        O  0.47358646  0.46751614  0.96164772    -1.30500
O108        O  0.50228896  0.03629100  0.12446810    -0.86300
O109        O  0.49398901  0.04213745  0.88784738    -0.87800
O110        O  0.07763963  0.50064827  0.06382408    -0.86400
O111        O  0.42744806  0.49138134  0.07290118    -0.86400
O112        O  0.42308047  0.98897701  0.94467574    -0.86100
O113        O  0.07297014  0.99849079  0.93403070    -0.85900
O114        O  0.03687945  0.07117778  0.00495612    -0.86300
O115        O  0.45250258  0.06251268  0.01074370    -0.85800
O116        O  0.07101934  0.04177385  0.00133865    -0.86800
O117        O  0.42357600  0.02791019  0.01284222    -0.86000
O118        O  0.05017477  0.49616773  0.11916993    -0.86400
O119        O  0.04116253  0.99758982  0.88264559    -0.86100
O120        O  0.45019345  0.99501173  0.88950258    -0.85800
O121        O  0.45858816  0.49221406  0.12510534    -0.86200
O122        O  0.49863948  0.06752774  0.07296590    -0.86500
O123        O  0.49333966  0.06997051  0.94369342    -0.87800
Zr124      Zr  0.50352603  0.49310559  0.09212321     2.83100
Zr125      Zr  0.49710634  0.99540137  0.91629732     2.83500
Zr126      Zr  0.05162192  0.49770580  0.00030265     2.84100
Zr127      Zr  0.44857057  0.49210128  0.00767944     2.83400
Zr128      Zr  0.49665063  0.04518674  0.00686591     2.84200
O129        O  0.47082035  0.01788262  0.96426291    -1.08400
O130        O  0.02599228  0.02069565  0.04729129    -1.07900
C131        C  0.50082585  0.06065095  0.11111591     1.06800
C132        C  0.49268851  0.06576098  0.90462879     1.09400
C133        C  0.07335610  0.49931805  0.10288726     1.07000
C134        C  0.43424042  0.49203044  0.11115827     1.07300
C135        C  0.42697982  0.99252394  0.90596866     1.06900
C136        C  0.06555352  0.99829441  0.89586461     1.06400
C137        C  0.06148248  0.06534937  0.00273113     1.06900
C138        C  0.42926281  0.05278243  0.01404435     1.06400
H139        H  0.03286113  0.03514783  0.94374747     0.33100
O140        O  0.02307367  0.02267350  0.96024573    -1.29500
H141        H  0.46271407  0.02627870  0.06736216     0.33100
O142        O  0.47401164  0.01614396  0.04975300    -1.30900
N143        N  0.25655974  0.28382878  0.04621902    -0.36400
N144        N  0.29106495  0.23804193  0.05752064    -0.57000
N145        N  0.24589116  0.20443451  0.04508329    -0.36400
N146        N  0.21140580  0.25016429  0.03766308    -0.57000
C147        C  0.27884202  0.29540979  0.06018086     0.27200
C148        C  0.23711576  0.30189803  0.04954304     0.27200
C149        C  0.26404352  0.18611885  0.05587682     0.27200
C150        C  0.22220253  0.19251075  0.04631384     0.27200
C151        C  0.30919721  0.25719941  0.05237133     0.35800
C152        C  0.30352728  0.21479221  0.05138763     0.35800
C153        C  0.20057053  0.27329508  0.02548740     0.35800
C154        C  0.19487104  0.23102311  0.02438086     0.35800
C155        C  0.27356608  0.32121949  0.07250942    -0.21700
C156        C  0.24710158  0.32532083  0.06576499    -0.21700
C157        C  0.25180224  0.16218293  0.06421406    -0.21700
C158        C  0.22529353  0.16625343  0.05838154    -0.21700
C159        C  0.33348859  0.24610681  0.04400726    -0.22800
C160        C  0.32989887  0.21912794  0.04351966    -0.22800
C161        C  0.17680301  0.26892379  0.00513029    -0.22800
C162        C  0.17322917  0.24201512  0.00426856    -0.22800
C163        C  0.30418383  0.28452084  0.05639809    -0.18100
C164        C  0.21125731  0.29834220  0.03460071    -0.18100
C165        C  0.19840106  0.20383231  0.03204281    -0.18100
C166        C  0.29139887  0.18971295  0.05350513    -0.18100
H167        H  0.28753289  0.33583146  0.08380946     0.14800
H168        H  0.23657451  0.34363799  0.07102921     0.14800
H169        H  0.26107586  0.14352644  0.07224158     0.14800
H170        H  0.21013622  0.15129307  0.06107821     0.14800
H171        H  0.35183044  0.25635252  0.03864935     0.13100
H172        H  0.34489336  0.20443264  0.03764006     0.13100
H173        H  0.16348213  0.28356433  0.99221836     0.13100
H174        H  0.15656755  0.23173206  0.99055847     0.13100
H175        H  0.25561676  0.26630773  0.02938483     0.26300
H176        H  0.24970589  0.22257402  0.03140465     0.26300
C177        C  0.50410889  0.24283140  0.25413449    -0.02300
C178        C  0.25417219  0.50021718  0.25409588    -0.02300
C179        C  0.50953429  0.24528986  0.75176977    -0.02300
C180        C  0.24361911  0.50416365  0.75612324    -0.02300
C181        C  0.09771142  0.50117856  0.12970613    -0.11800
C182        C  0.10701153  0.47940238  0.15293791     0.03700
C183        C  0.13275757  0.47937093  0.16980763    -0.12300
C184        C  0.14952170  0.50154813  0.16637636     0.18600
C185        C  0.13658903  0.02358048  0.14984787    -0.09400
C186        C  0.11127989  0.02260821  0.13165426    -0.02300
H187        H  0.13964863  0.46191719  0.18613439     0.05100
C188        C  0.17646683  0.50143274  0.18686757     0.20500
H189        H  0.10324074  0.04034180  0.11745462     0.10300
C190        C  0.19791313  0.00625139  0.16229553    -0.15700
C191        C  0.22360826  0.00627422  0.18014873     0.03200
C192        C  0.22797734  0.50186502  0.22655035    -0.11000
C193        C  0.20415752  0.49817551  0.24834602    -0.01000
C194        C  0.17929229  0.49746175  0.22950556    -0.06200
H195        H  0.19541617  0.01129890  0.13001403     0.06300
H196        H  0.20488539  0.49470814  0.28107934     0.09600
Br197      Br  0.15376956  0.05733879  0.15394685    -0.05900
Br198      Br  0.08542124  0.44896599  0.16181936    -0.02800
Br199      Br  0.25064302  0.01869684  0.14430254     0.00000
Br200      Br  0.14976348  0.49181104  0.26474555    -0.04400
C201        C  0.41092717  0.49407259  0.13871777    -0.11800
C202        C  0.40451898  0.47493824  0.16868511     0.03700
C203        C  0.37906609  0.47452475  0.18596685    -0.12300
C204        C  0.35938198  0.49261468  0.17309315     0.18600
C205        C  0.36893646  0.01303214  0.14727753    -0.09400
C206        C  0.39458385  0.01249073  0.13201415    -0.02300
H207        H  0.37453414  0.45984611  0.20914887     0.05100
C208        C  0.33299495  0.49357320  0.19348535     0.20500
H209        H  0.40098363  0.02871018  0.11265673     0.10300
C210        C  0.32806849  0.01308984  0.21814574    -0.15700
C211        C  0.30356950  0.01716724  0.23635497     0.03200
C212        C  0.28205034  0.50003098  0.23187756    -0.11000
C213        C  0.28713415  0.47973730  0.20239225    -0.01000
C214        C  0.31187054  0.47660740  0.18336352    -0.06200
H215        H  0.34445621  0.02581222  0.22683202     0.06300
H216        H  0.27151048  0.46620775  0.19355999     0.09600
Br217      Br  0.34708237  0.04275573  0.13260378    -0.05900
Br218      Br  0.42920470  0.44797040  0.18441073    -0.02800
Br219      Br  0.30658030  0.04537093  0.27658925     0.00000
Br220      Br  0.31597163  0.44929420  0.14282514    -0.04400
C221        C  0.50804512  0.39931124  0.13223699    -0.11800
C222        C  0.03025953  0.38251377  0.13097876     0.03700
C223        C  0.02958731  0.35698303  0.14835374    -0.12300
C224        C  0.50681540  0.34724063  0.16703835     0.18600
C225        C  0.48475009  0.36432714  0.16948949    -0.09400
C226        C  0.48545025  0.38993214  0.15197662    -0.02300
H227        H  0.04699696  0.34465602  0.14725600     0.05100
C228        C  0.50714453  0.32036289  0.18712870     0.20500
H229        H  0.46789777  0.40207621  0.15220959     0.10300
C230        C  0.00396166  0.31909377  0.22962695    -0.15700
C231        C  0.00311035  0.29493437  0.25071966     0.03200
C232        C  0.50532260  0.26996054  0.22941541    -0.11000
C233        C  0.50963616  0.27168644  0.18647938    -0.01000
C234        C  0.51089382  0.29628733  0.16563410    -0.06200
H235        H  0.00187805  0.33741157  0.24681740     0.06300
H236        H  0.51236937  0.25392380  0.16853902     0.09600
Br237      Br  0.45269739  0.35313344  0.19480915    -0.05900
Br238      Br  0.06201849  0.39348076  0.10493791    -0.02800
Br239      Br  0.99718479  0.29937331  0.30876739     0.00000
Br240      Br  0.51762469  0.29575933  0.10765393    -0.04400
C241        C  0.50249113  0.08335178  0.14049059    -0.11800
C242        C  0.02468382  0.10015970  0.14038341     0.03700
C243        C  0.02394427  0.12512831  0.15954784    -0.12300
C244        C  0.00135638  0.13398465  0.17977483     0.18600
C245        C  0.47962314  0.11654871  0.18206603    -0.09400
C246        C  0.48017219  0.09165933  0.16205807    -0.02300
H247        H  0.04104205  0.13791184  0.15815533     0.05100
C248        C  0.00131826  0.16131130  0.19830214     0.20500
H249        H  0.46281684  0.07918723  0.16217298     0.10300
C250        C  0.48595345  0.18168990  0.18089399    -0.15700
C251        C  0.48657652  0.20799872  0.19639644     0.03200
C252        C  0.50362663  0.21509319  0.23034172    -0.11000
C253        C  0.01839914  0.19351418  0.24760053    -0.01000
C254        C  0.01767084  0.16764427  0.23195380    -0.06200
H255        H  0.47326994  0.17704726  0.15471826     0.06300
H256        H  0.03078177  0.19610896  0.27460073     0.09600
Br257      Br  0.44903385  0.12567741  0.21279166    -0.05900
Br258      Br  0.05647966  0.08984192  0.11370964    -0.02800
Br259      Br  0.46290154  0.23170764  0.16823913     0.00000
Br260      Br  0.03900282  0.14124471  0.25903255    -0.04400
C261        C  0.09278736  0.41415378  0.99411071    -0.11800
C262        C  0.09091365  0.38832960  0.97739304     0.03700
C263        C  0.11235910  0.37115627  0.98117082    -0.12300
C264        C  0.13554372  0.37940940  0.00127490     0.18600
C265        C  0.13786855  0.40539295  0.01621306    -0.09400
C266        C  0.11662911  0.42256293  0.01245492    -0.02300
H267        H  0.11070246  0.35104802  0.96956333     0.05100
C268        C  0.15594461  0.35987494  0.01080541     0.20500
H269        H  0.11849807  0.44227850  0.02553638     0.10300
C270        C  0.17599939  0.35523499  0.98264354    -0.15700
C271        C  0.19525996  0.33622642  0.99118353     0.03200
C272        C  0.19424590  0.32163056  0.02807767    -0.11000
C273        C  0.17456393  0.32685679  0.05668440    -0.01000
C274        C  0.15546913  0.34596894  0.04831098    -0.06200
H275        H  0.17645396  0.36616771  0.95392231     0.06300
H276        H  0.17363621  0.31545768  0.08492485     0.09600
Br277      Br  0.16908889  0.41766007  0.04430405    -0.05900
Br278      Br  0.06007883  0.37544415  0.94871682    -0.02800
Br279      Br  0.22185350  0.32988288  0.95108293     0.00000
Br280      Br  0.12862453  0.35207279  0.08820862    -0.04400
C281        C  0.42098342  0.40231552  0.02641771    -0.11800
C282        C  0.39693211  0.40673119  0.04684811     0.03700
C283        C  0.38053919  0.38536836  0.05519833    -0.12300
C284        C  0.38755334  0.35966884  0.04382094     0.18600
C285        C  0.41164964  0.35486548  0.02492845    -0.09400
C286        C  0.42822894  0.37611389  0.01644014    -0.02300
H287        H  0.36180958  0.38886634  0.06975428     0.05100
C288        C  0.36775338  0.33892070  0.04697118     0.20500
H289        H  0.44662077  0.37209227  0.00124156     0.10300
C290        C  0.34964108  0.33627018  0.01436884    -0.15700
C291        C  0.32897995  0.31839278  0.01701956     0.03200
C292        C  0.32629509  0.30307483  0.05292580    -0.11000
C293        C  0.34464622  0.30544332  0.08544115    -0.01000
C294        C  0.36546980  0.32334694  0.08259698    -0.06200
H295        H  0.35144347  0.34843106  0.98701536     0.06300
H296        H  0.34260560  0.29352020  0.11297712     0.09600
Br297      Br  0.42214908  0.31975028  0.00929314    -0.05900
Br298      Br  0.38475099  0.44080435  0.06512180    -0.02800
Br299      Br  0.30498395  0.31554938  0.97087449     0.00000
Br300      Br  0.39016079  0.32621473  0.12767556    -0.04400
C301        C  0.40751652  0.07140991  0.02064037    -0.11800
C302        C  0.41169912  0.09674803  0.03842182     0.03700
C303        C  0.39040521  0.11340063  0.04458112    -0.12300
C304        C  0.36475362  0.10501842  0.03547662     0.18600
C305        C  0.36036578  0.07976342  0.01826218    -0.09400
C306        C  0.38171311  0.06325491  0.01072816    -0.02300
H307        H  0.39384674  0.13302482  0.05726561     0.05100
C308        C  0.34328210  0.12384157  0.04222166     0.20500
H309        H  0.37802462  0.04386763  0.99738309     0.10300
C310        C  0.32838750  0.13236313  0.00808681    -0.15700
C311        C  0.31041732  0.15293542  0.01195819     0.03200
C312        C  0.30800316  0.16594450  0.05006861    -0.11000
C313        C  0.32220482  0.15695592  0.08463572    -0.01000
C314        C  0.33959131  0.13572151  0.08109006    -0.06200
H315        H  0.33132915  0.12352754  0.97804204     0.06300
H316        H  0.31995794  0.16668668  0.11416896     0.09600
Br317      Br  0.32571643  0.06655499  0.00585719    -0.05900
Br318      Br  0.44516380  0.10972614  0.05842856    -0.02800
Br319      Br  0.29026308  0.16313991  0.96408268     0.00000
Br320      Br  0.35788554  0.12370740  0.12990290    -0.04400
C321        C  0.08052764  0.08707738  0.00219152    -0.11800
C322        C  0.07741553  0.10907591  0.97575869     0.03700
C323        C  0.09642701  0.12902897  0.97594114    -0.12300
C324        C  0.11844599  0.12714760  0.00206554     0.18600
C325        C  0.12182018  0.10511585  0.02796502    -0.09400
C326        C  0.10295583  0.08514848  0.02774615    -0.02300
H327        H  0.09400041  0.14608091  0.95593170     0.05100
C328        C  0.13700329  0.14908813  0.00475522     0.20500
H329        H  0.10560854  0.06824565  0.04800482     0.10300
C330        C  0.13368406  0.16764144  0.03636456    -0.15700
C331        C  0.15345761  0.18582185  0.04569743     0.03200
C332        C  0.17645425  0.18589115  0.02218154    -0.11000
C333        C  0.17915134  0.16819833  0.98918399    -0.01000
C334        C  0.15975733  0.14943054  0.98080011    -0.06200
H335        H  0.11633473  0.16690460  0.05531495     0.06300
H336        H  0.19690470  0.16831160  0.97113179     0.09600
Br337      Br  0.15177253  0.10200604  0.06441963    -0.05900
Br338      Br  0.04861652  0.11219594  0.93728020    -0.02800
Br339      Br  0.14901390  0.20862226  0.09251591     0.00000
Br340      Br  0.16620870  0.12333811  0.93910649    -0.04400
C341        C  0.27232941  0.00180238  0.78491829    -0.11800
C342        C  0.27930280  0.47811976  0.80288850     0.03700
C343        C  0.30510895  0.47602370  0.81986859    -0.12300
C344        C  0.32493493  0.99630769  0.81975250     0.18600
C345        C  0.31707928  0.01977033  0.80030925    -0.09400
C346        C  0.29185047  0.02218450  0.78305558    -0.02300
H347        H  0.31105541  0.45775323  0.83486505     0.05100
C348        C  0.35121819  0.99462770  0.84108186     0.20500
H349        H  0.28881644  0.04041510  0.76662669     0.10300
C350        C  0.37334838  0.98418436  0.82106225    -0.15700
C351        C  0.39849449  0.98399004  0.84047261     0.03200
C352        C  0.40191576  0.99447203  0.88067403    -0.11000
C353        C  0.37725736  0.50515005  0.90030666    -0.01000
C354        C  0.35246309  0.50478859  0.88063171    -0.06200
H355        H  0.37105505  0.97612831  0.79024630     0.06300
H356        H  0.37839026  0.51260637  0.93161899     0.09600
Br357      Br  0.34059006  0.04942996  0.79565013    -0.05900
Br358      Br  0.25828995  0.44658202  0.80813762    -0.02800
Br359      Br  0.42697148  0.96785503  0.81174655     0.00000
Br360      Br  0.32263162  0.51706663  0.91077707    -0.04400
C361        C  0.08774368  0.99911194  0.86636905    -0.11800
C362        C  0.09779837  0.02353557  0.85238917     0.03700
C363        C  0.12292955  0.02490903  0.83484372    -0.12300
C364        C  0.13882162  0.00220593  0.83121280     0.18600
C365        C  0.12436484  0.48292021  0.83792362    -0.09400
C366        C  0.09923154  0.48193483  0.85516955    -0.02300
H367        H  0.13049540  0.04399941  0.82531986     0.05100
C368        C  0.16615910  0.00458785  0.81465151     0.20500
H369        H  0.09084836  0.46280897  0.86273277     0.10300
C370        C  0.18591847  0.50335715  0.83840908    -0.15700
C371        C  0.21183221  0.50244743  0.82308427     0.03200
C372        C  0.21876173  0.00483303  0.78226438    -0.11000
C373        C  0.19613058  0.01194086  0.75812686    -0.01000
C374        C  0.17058525  0.01199838  0.77367378    -0.06200
H375        H  0.18281681  0.50019066  0.87101258     0.06300
H376        H  0.19807977  0.01602102  0.72555610     0.09600
Br377      Br  0.14165276  0.44987863  0.82810260    -0.05900
Br378      Br  0.07879273  0.05593820  0.86014468    -0.02800
Br379      Br  0.23823681  0.49995814  0.86589133     0.00000
Br380      Br  0.14219976  0.01984163  0.73599554    -0.04400
C381        C  0.50996416  0.21989915  0.78091056    -0.11800
C382        C  0.03111113  0.20133487  0.78749499     0.03700
C383        C  0.02658516  0.17667735  0.80684742    -0.12300
C384        C  0.50171319  0.16899463  0.82058818     0.18600
C385        C  0.48167873  0.18852270  0.81916945    -0.09400
C386        C  0.48646580  0.21382838  0.80204297    -0.02300
H387        H  0.04297419  0.16325207  0.81156188     0.05100
C388        C  0.49769162  0.14154924  0.83895733     0.20500
H389        H  0.47018376  0.22763579  0.80025960     0.10300
C390        C  0.98513575  0.13934131  0.87694253    -0.15700
C391        C  0.98103287  0.11478349  0.89604144     0.03200
C392        C  0.49136553  0.09091282  0.87914153    -0.11000
C393        C  0.50367677  0.09283685  0.84067080    -0.01000
C394        C  0.50660945  0.11760214  0.82045342    -0.06200
H395        H  0.97852616  0.15708432  0.89248136     0.06300
H396        H  0.51176505  0.07516135  0.82673699     0.09600
Br397      Br  0.44568811  0.18022290  0.83115189    -0.05900
Br398      Br  0.06781955  0.20747186  0.77794840    -0.02800
Br399      Br  0.96036269  0.11604356  0.94517390     0.00000
Br400      Br  0.52258639  0.11714015  0.76726620    -0.04400
C401        C  0.50346412  0.27044673  0.78096875    -0.11800
C402        C  0.02061953  0.27984250  0.81335089     0.03700
C403        C  0.01832424  0.30598147  0.82902640    -0.12300
C404        C  0.49828927  0.32317707  0.81558361     0.18600
C405        C  0.47865447  0.31250948  0.78957124    -0.09400
C406        C  0.48047429  0.28624910  0.77519622    -0.02300
H407        H  0.03241040  0.31297632  0.85197735     0.05100
C408        C  0.49619915  0.35075921  0.83323280     0.20500
H409        H  0.46342311  0.27874984  0.75891239     0.10300
C410        C  0.50969900  0.37245261  0.81581964    -0.15700
C411        C  0.50913082  0.39806446  0.83412529     0.03200
C412        C  0.49474445  0.40243290  0.87050576    -0.11000
C413        C  0.98032440  0.38081812  0.88627608    -0.01000
C414        C  0.98111859  0.35547081  0.86846001    -0.06200
H415        H  0.52131877  0.36929885  0.78855417     0.06300
H416        H  0.96910357  0.38336046  0.91413773     0.09600
Br417      Br  0.44898794  0.33325875  0.77185279    -0.05900
Br418      Br  0.04849775  0.25936581  0.83741156    -0.02800
Br419      Br  0.52990363  0.42563788  0.81028941     0.00000
Br420      Br  0.96244760  0.32736588  0.89509611    -0.04400
C421        C  0.35518979  0.25012689  0.62445351    -0.11800
C422        C  0.36250827  0.26762433  0.65690650     0.03700
C423        C  0.38885824  0.26806158  0.67253212    -0.12300
C424        C  0.40850255  0.25120678  0.65656243     0.18600
C425        C  0.40085939  0.23349852  0.62481050    -0.09400
C426        C  0.37491559  0.23309540  0.60949823    -0.02300
H427        H  0.39392517  0.28137996  0.69765212     0.05100
C428        C  0.43567292  0.24924546  0.67634468     0.20500
H429        H  0.37023481  0.21939492  0.58466542     0.10300
C430        C  0.44266107  0.22540344  0.69548088    -0.15700
C431        C  0.46756084  0.22120728  0.71370169     0.03200
C432        C  0.48622144  0.24268161  0.71788511    -0.11000
C433        C  0.48060967  0.26493355  0.69223273    -0.01000
C434        C  0.45544406  0.26890787  0.67365281    -0.06200
H435        H  0.42861569  0.20921227  0.69487307     0.06300
H436        H  0.49464094  0.28109307  0.69130724     0.09600
Br437      Br  0.42525394  0.20939221  0.60008420    -0.05900
Br438      Br  0.33763423  0.29166622  0.68014697    -0.02800
Br439      Br  0.47404293  0.18385477  0.72209954     0.00000
Br440      Br  0.44866255  0.30233993  0.64766969    -0.04400
C441        C  0.03645473  0.24990753  0.72740467    -0.11800
C442        C  0.04655582  0.23207122  0.69698579     0.03700
C443        C  0.07218644  0.23505291  0.68102960    -0.12300
C444        C  0.08904832  0.25579214  0.69321232     0.18600
C445        C  0.07836494  0.27523696  0.71938829    -0.09400
C446        C  0.05249720  0.27279468  0.73426502    -0.02300
H447        H  0.07919349  0.22065219  0.65895862     0.05100
C448        C  0.11673931  0.25747122  0.67610111     0.20500
H449        H  0.04557274  0.28950062  0.75150339     0.10300
C450        C  0.12420995  0.27953561  0.65234416    -0.15700
C451        C  0.14874929  0.28063297  0.63261223     0.03200
C452        C  0.16706649  0.25958282  0.63631979    -0.11000
C453        C  0.16012097  0.23790704  0.66117092    -0.01000
C454        C  0.13540732  0.23666761  0.68068301    -0.06200
H455        H  0.11043515  0.29566692  0.64768897     0.06300
H456        H  0.17339189  0.22116970  0.66371231     0.09600
Br457      Br  0.09861058  0.30519245  0.73811975    -0.05900
Br458      Br  0.02800410  0.20212447  0.67552443    -0.02800
Br459      Br  0.15611198  0.31113781  0.59928808     0.00000
Br460      Br  0.12810395  0.20565303  0.71265279    -0.04400
C461        C  0.24559280  0.03241365  0.73577642    -0.11800
C462        C  0.24317528  0.05689541  0.75846078     0.03700
C463        C  0.24417852  0.08164292  0.73878536    -0.12300
C464        C  0.24627026  0.08394548  0.69610955     0.18600
C465        C  0.24701052  0.06017930  0.67281335    -0.09400
C466        C  0.24672846  0.03504693  0.69235365    -0.02300
H467        H  0.24380429  0.09950615  0.75738775     0.05100
C468        C  0.24911994  0.11121426  0.67723377     0.20500
H469        H  0.24709320  0.01764521  0.67294556     0.10300
C470        C  0.27144517  0.11695449  0.65386402    -0.15700
C471        C  0.27474808  0.14175015  0.63481935     0.03200
C472        C  0.25593261  0.16215100  0.63951696    -0.11000
C473        C  0.23426125  0.15706076  0.66470834    -0.01000
C474        C  0.23070624  0.13198080  0.68335470    -0.06200
H475        H  0.28626261  0.10180740  0.64966958     0.06300
H476        H  0.21913813  0.17203003  0.66773251     0.09600
Br477      Br  0.24700395  0.06094934  0.61371292    -0.05900
Br478      Br  0.24050274  0.05954133  0.81734841    -0.02800
Br479      Br  0.30503923  0.14645630  0.60098313     0.00000
Br480      Br  0.19901310  0.12654202  0.71356010    -0.04400
C481        C  0.26470842  0.35055225  0.62402944    -0.11800
C482        C  0.27347291  0.37496779  0.60652444     0.03700
C483        C  0.26999453  0.39925603  0.62712263    -0.12300
C484        C  0.25946928  0.40062853  0.66673081     0.18600
C485        C  0.25274884  0.37621055  0.68586648    -0.09400
C486        C  0.25497749  0.35175267  0.66444444    -0.02300
H487        H  0.27559041  0.41741868  0.61174155     0.05100
C488        C  0.25471875  0.42764817  0.68623343     0.20500
H489        H  0.24867717  0.33367044  0.67934721     0.10300
C490        C  0.22989805  0.43377149  0.70127425    -0.15700
C491        C  0.22482571  0.45725641  0.72352575     0.03200
C492        C  0.24417797  0.47844935  0.72658554    -0.11000
C493        C  0.26829097  0.47274889  0.70662408    -0.01000
C494        C  0.27412583  0.44761455  0.68956317    -0.06200
H495        H  0.21459933  0.41886520  0.69836596     0.06300
H496        H  0.28406670  0.48716568  0.70821276     0.09600
Br497      Br  0.24161455  0.37487882  0.74207205    -0.05900
Br498      Br  0.29187031  0.37737045  0.55518567    -0.02800
Br499      Br  0.19288898  0.45260384  0.75363849     0.00000
Br500      Br  0.31015924  0.44034460  0.67731155    -0.04400
C501        C  0.33462220  0.15701689  0.48584898    -0.11800
C502        C  0.32634594  0.13127665  0.47331920     0.03700
C503        C  0.34513178  0.11216279  0.46380007    -0.12300
C504        C  0.37191387  0.11831252  0.46531241     0.18600
C505        C  0.38023576  0.14378046  0.47701528    -0.09400
C506        C  0.36171263  0.16271458  0.48773733    -0.02300
H507        H  0.33883396  0.09253807  0.45414308     0.05100
C508        C  0.39100171  0.09802899  0.45390130     0.20500
H509        H  0.36869262  0.18219578  0.49686382     0.10300
C510        C  0.40251975  0.09927805  0.41498990    -0.15700
C511        C  0.42207616  0.08129316  0.40430069     0.03200
C512        C  0.42995100  0.06170822  0.43268676    -0.11000
C513        C  0.41787043  0.06000650  0.47114123    -0.01000
C514        C  0.39849502  0.07811742  0.48197357    -0.06200
H515        H  0.39670334  0.11465368  0.39338463     0.06300
H516        H  0.42419041  0.04510136  0.49320440     0.09600
Br517      Br  0.41665844  0.15378254  0.47823815    -0.05900
Br518      Br  0.29024772  0.12075253  0.46514732    -0.02800
Br519      Br  0.43817053  0.08458439  0.35146599     0.00000
Br520      Br  0.38387294  0.07593413  0.53605663    -0.04400
C521        C  0.16344484  0.17007395  0.49444841    -0.11800
C522        C  0.13668334  0.17788548  0.49050807     0.03700
C523        C  0.11773931  0.15932498  0.47810635    -0.12300
C524        C  0.12473873  0.13311337  0.46961925     0.18600
C525        C  0.15099864  0.12506868  0.47415371    -0.09400
C526        C  0.17003852  0.14339866  0.48652910    -0.02300
H527        H  0.09734250  0.16533293  0.47515552     0.05100
C528        C  0.10415606  0.11402593  0.45798457     0.20500
H529        H  0.19023380  0.13669837  0.48885983     0.10300
C530        C  0.09607942  0.11179050  0.41657110    -0.15700
C531        C  0.07711632  0.09303186  0.40483387     0.03200
C532        C  0.06627542  0.07633214  0.43478363    -0.11000
C533        C  0.07405993  0.07894912  0.47624413    -0.01000
C534        C  0.09282370  0.09775306  0.48801253    -0.06200
H535        H  0.10473823  0.12442541  0.39343060     0.06300
H536        H  0.06563902  0.06613974  0.49937836     0.09600
Br537      Br  0.16178253  0.08929359  0.46331830    -0.05900
Br538      Br  0.12385967  0.21310539  0.50128398    -0.02800
Br539      Br  0.06675406  0.09035840  0.34789861     0.00000
Br540      Br  0.10268978  0.10049141  0.54523002    -0.04400
C541        C  0.17612955  0.34460860  0.49262151    -0.11800
C542        C  0.18308583  0.37171028  0.49693888     0.03700
C543        C  0.16462209  0.39128578  0.48717523    -0.12300
C544        C  0.13896279  0.38451740  0.47484538     0.18600
C545        C  0.13156983  0.35763964  0.47294476    -0.09400
C546        C  0.15010651  0.33806634  0.48135645    -0.02300
H547        H  0.17038583  0.41195893  0.48890738     0.05100
C548        C  0.12040861  0.40553624  0.46238856     0.20500
H549        H  0.14406888  0.31754434  0.47817628     0.10300
C550        C  0.10943275  0.40481365  0.42238622    -0.15700
C551        C  0.08995527  0.42278779  0.41048691     0.03200
C552        C  0.08183740  0.44225022  0.43847628    -0.11000
C553        C  0.09383623  0.44403821  0.47755685    -0.01000
C554        C  0.11298256  0.42580320  0.48981288    -0.06200
H555        H  0.11550359  0.38967930  0.40078296     0.06300
H556        H  0.08750195  0.45908600  0.49912052     0.06800
Br557      Br  0.09635269  0.34633964  0.45955705    -0.05900
Br558      Br  0.21680851  0.38388152  0.51691039    -0.02800
Br559      Br  0.07440619  0.41962839  0.35647721     0.00000
Br560      Br  0.12681862  0.42854146  0.54508487    -0.04400
C561        C  0.44539484  0.42848528  0.43818705    -0.11800
C562        C  0.44341138  0.40700214  0.41043660     0.03700
C563        C  0.42532916  0.38664930  0.41769708    -0.12300
C564        C  0.40896397  0.38769955  0.45205595     0.18600
C565        C  0.41076108  0.40927346  0.47942829    -0.09400
C566        C  0.42911322  0.42927689  0.47266765    -0.02300
H567        H  0.42365464  0.37026166  0.39616927     0.05100
C568        C  0.38899506  0.36703770  0.45815054     0.20500
H569        H  0.43042593  0.44579507  0.49401097     0.10300
C570        C  0.39407980  0.34641744  0.48608979    -0.15700
C571        C  0.37441473  0.32815935  0.49587242     0.03200
C572        C  0.34911393  0.33071225  0.47769209    -0.11000
C573        C  0.34432098  0.35121241  0.44923202    -0.01000
C574        C  0.36405695  0.36922941  0.43930684    -0.06200
H575        H  0.41321260  0.34495571  0.50108149     0.06300
H576        H  0.32515483  0.35317265  0.43446726     0.09600
Br577      Br  0.38765710  0.41277251  0.52532823    -0.05900
Br578      Br  0.46417045  0.40526322  0.36160626    -0.02800
Br579      Br  0.38284447  0.30143820  0.53619982     0.00000
Br580      Br  0.35594596  0.39717421  0.40106520    -0.04400
C581        C  0.16090031  0.24758943  0.37323809    -0.11800
C582        C  0.15339907  0.26576697  0.34226753     0.03700
C583        C  0.12773304  0.26495542  0.32536685    -0.12300
C584        C  0.10936546  0.24571712  0.33792431     0.18600
C585        C  0.11793257  0.22590823  0.36569952    -0.09400
C586        C  0.14309760  0.22743330  0.38382028    -0.02300
H587        H  0.12200509  0.27953844  0.30242342     0.05100
C588        C  0.08238341  0.24541201  0.31871317     0.20500
H589        H  0.14882470  0.21275549  0.40664273     0.10300
C590        C  0.08026328  0.24212876  0.27624067    -0.15700
C591        C  0.05588990  0.24164012  0.25576214     0.03200
C592        C  0.03160685  0.24448142  0.27781821    -0.11000
C593        C  0.03427414  0.24875024  0.32077505    -0.01000
C594        C  0.05905483  0.24903020  0.34108322    -0.06200
H595        H  0.09802637  0.23940427  0.25866797     0.06300
H596        H  0.01712443  0.25206956  0.33917151     0.09600
Br597      Br  0.09684142  0.19543382  0.37802425    -0.05900
Br598      Br  0.17709712  0.29225267  0.32268589    -0.02800
Br599      Br  0.05920100  0.23447142  0.19773524     0.00000
Br600      Br  0.05994996  0.25541525  0.39935456    -0.04400
C601        C  0.34442621  0.24116637  0.36426962    -0.11800
C602        C  0.35698567  0.26468179  0.35188333     0.03700
C603        C  0.38265987  0.26405066  0.33613261    -0.12300
C604        C  0.39650428  0.24002766  0.33061759     0.18600
C605        C  0.38351964  0.21628109  0.34233468    -0.09400
C606        C  0.35809233  0.21712772  0.35932979    -0.02300
H607        H  0.39207827  0.28269329  0.32883260     0.05100
C608        C  0.42400100  0.24059015  0.31251626     0.20500
H609        H  0.34935260  0.19890979  0.37029527     0.10300
C610        C  0.44536388  0.22711926  0.33125119    -0.15700
C611        C  0.47093242  0.22680690  0.31409276     0.03200
C612        C  0.47707707  0.24276136  0.27888609    -0.11000
C613        C  0.45503197  0.25633464  0.26108504    -0.01000
C614        C  0.42938030  0.25487698  0.27634581    -0.06200
H615        H  0.44205408  0.21606556  0.35928151     0.06300
H616        H  0.45704784  0.26779980  0.23326869     0.09600
Br617      Br  0.39922682  0.18189904  0.33640548    -0.05900
Br618      Br  0.34029276  0.29847793  0.35886333    -0.02800
Br619      Br  0.49475207  0.20240864  0.34052651     0.00000
Br620      Br  0.40203401  0.27108285  0.24334674    -0.04400
C621        C  0.25322880  0.33997540  0.36324900    -0.11800
C622        C  0.23016182  0.35551031  0.36173419     0.03700
C623        C  0.23012440  0.38044425  0.34251767    -0.12300
C624        C  0.25314120  0.39094036  0.32554444     0.18600
C625        C  0.27622980  0.37536115  0.32678045    -0.09400
C626        C  0.27610095  0.35014043  0.34536428    -0.02300
H627        H  0.21231836  0.39222928  0.34248722     0.05100
C628        C  0.25296625  0.41852110  0.30847426     0.20500
H629        H  0.29429869  0.33909507  0.34787740     0.10300
C630        C  0.26871814  0.43831817  0.32666593    -0.15700
C631        C  0.26974026  0.46434558  0.31075657     0.03200
C632        C  0.25341087  0.47211284  0.27658142    -0.11000
C633        C  0.23879936  0.45092956  0.25765704    -0.01000
C634        C  0.23779026  0.42522539  0.27366592    -0.06200
H635        H  0.28077901  0.43330544  0.35336339     0.06300
H636        H  0.22831299  0.45361009  0.22876709     0.09600
Br637      Br  0.30865373  0.38806115  0.30463352    -0.05900
Br638      Br  0.19886941  0.34459199  0.38919044    -0.02800
Br639      Br  0.29443341  0.48700050  0.33845702     0.00000
Br640      Br  0.21618068  0.39967274  0.24497607    -0.04400
C641        C  0.24956634  0.02569602  0.27522532    -0.11800
C642        C  0.24253014  0.02822784  0.31761971     0.03700
C643        C  0.24091048  0.05363030  0.33618857    -0.12300
C644        C  0.24372303  0.07720190  0.31340821     0.18600
C645        C  0.24687518  0.07485205  0.27059179    -0.09400
C646        C  0.24930531  0.04975428  0.25222488    -0.02300
H647        H  0.23683519  0.05500996  0.36879571     0.05100
C648        C  0.24361104  0.10393068  0.33448186     0.20500
H649        H  0.25258439  0.04916806  0.21942068     0.10300
C650        C  0.26651361  0.11969939  0.33457086    -0.15700
C651        C  0.26762577  0.14432767  0.35520257     0.03200
C652        C  0.24543003  0.15427286  0.37559007    -0.11000
C653        C  0.22250945  0.13853944  0.37568476    -0.01000
C654        C  0.22144422  0.11374064  0.35541059    -0.06200
H655        H  0.28397301  0.11237905  0.31962506     0.06300
H656        H  0.20548607  0.14533037  0.39237163     0.09600
Br657      Br  0.24814502  0.10538050  0.23538355    -0.05900
Br658      Br  0.23048501  0.99963302  0.35166336    -0.02800
Br659      Br  0.30076624  0.16238929  0.35893333     0.00000
Br660      Br  0.18919125  0.09405838  0.35695776    -0.04400
O661        O  0.25283092  0.70429719  0.38658084    -0.86300
O662        O  0.25873269  0.70974371  0.62261187    -0.86500
O663        O  0.29567373  0.67651118  0.50238719    -0.88100
O664        O  0.21229354  0.68074947  0.50887265    -0.86900
O665        O  0.18266530  0.71454331  0.50995709    -0.86500
O666        O  0.32936173  0.70596296  0.49666403    -0.87900
O667        O  0.25561114  0.67861558  0.57066696    -0.86300
O668        O  0.25179365  0.67557777  0.44160044    -0.85900
Zr669      Zr  0.25512726  0.70099698  0.50538073     2.84300
O670        O  0.23230215  0.72981764  0.54861158    -1.07900
O671        O  0.28098441  0.72387663  0.45862370    -1.08600
C672        C  0.25174314  0.68059867  0.40260985     1.06800
C673        C  0.25687099  0.68532995  0.60885716     1.06800
C674        C  0.32003153  0.68216597  0.49777963     1.09700
C675        C  0.18864160  0.68974330  0.50968844     1.07500
H676        H  0.29538645  0.71477029  0.56240431     0.33100
O677        O  0.28418652  0.72623226  0.54631579    -1.28800
H678        H  0.21647849  0.71591754  0.44790694     0.32700
O679        O  0.22870635  0.72726210  0.46273422    -1.30500
O680        O  0.26431712  0.80253379  0.61809109    -0.86300
O681        O  0.25654875  0.79462592  0.38042891    -0.87800
O682        O  0.33428056  0.75243657  0.56282338    -0.86400
O683        O  0.18511046  0.75840641  0.57153553    -0.86400
O684        O  0.17993818  0.75313518  0.44358226    -0.86100
O685        O  0.33008446  0.74956680  0.43214024    -0.85900
O686        O  0.30385794  0.82454741  0.49671044    -0.86300
O687        O  0.22016185  0.83066915  0.49671526    -0.85800
O688        O  0.33365235  0.79070023  0.49559288    -0.86800
O689        O  0.18665566  0.80076813  0.50063287    -0.86000
O690        O  0.30781296  0.75579040  0.61921804    -0.86400
O691        O  0.29821232  0.74878738  0.38090769    -0.86100
O692        O  0.20741460  0.74992265  0.38802890    -0.85800
O693        O  0.21637380  0.75706874  0.62356743    -0.86200
O694        O  0.26331767  0.83024488  0.56210188    -0.86500
O695        O  0.26091346  0.82595249  0.43183802    -0.87800
Zr696      Zr  0.26107391  0.75547934  0.59055837     2.83100
Zr697      Zr  0.25436009  0.75050408  0.41499960     2.83500
Zr698      Zr  0.30942188  0.74975521  0.49905399     2.84100
Zr699      Zr  0.20611355  0.75643346  0.50574921     2.83400
Zr700      Zr  0.26045422  0.80510450  0.49900442     2.84200
O701        O  0.23134740  0.77987993  0.45857932    -1.08400
O702        O  0.28660285  0.77864010  0.54205049    -1.07900
C703        C  0.26502384  0.82613729  0.60114757     1.06800
C704        C  0.25898716  0.81893013  0.39369909     1.09400
C705        C  0.33092061  0.75433611  0.60199238     1.07000
C706        C  0.19204108  0.75826987  0.60982827     1.07300
C707        C  0.18414904  0.75052085  0.40481994     1.06900
C708        C  0.32260982  0.74935378  0.39395721     1.06400
C709        C  0.32743655  0.81538324  0.49502224     1.06900
C710        C  0.19558333  0.82469656  0.49739456     1.06400
H711        H  0.29446423  0.78664390  0.43864293     0.33100
O712        O  0.28333477  0.77636022  0.45615673    -1.29500
H713        H  0.22460117  0.79457787  0.56216854     0.33100
O714        O  0.23463335  0.78224879  0.54624428    -1.30900
N715        N  0.50966513  0.96196612  0.42251203    -0.36400
N716        N  0.04748603  0.50636384  0.42836384    -0.57000
N717        N  0.50439876  0.54340902  0.43193015    -0.36400
N718        N  0.46787284  0.49884384  0.43145636    -0.57000
C719        C  0.03267087  0.95035563  0.43349210     0.27200
C720        C  0.49025603  0.94536627  0.43397545     0.27200
C721        C  0.02457567  0.55958852  0.44285398     0.27200
C722        C  0.48193301  0.55587600  0.44221934     0.27200
C723        C  0.06253535  0.98747679  0.41572212     0.35800
C724        C  0.06128780  0.52912957  0.42585057     0.35800
C725        C  0.45221830  0.97474872  0.41858492     0.35800
C726        C  0.45047884  0.51891961  0.42784015     0.35800
C727        C  0.02780297  0.92575568  0.45097947    -0.21700
C728        C  0.50101060  0.92258775  0.45121380    -0.21700
C729        C  0.01473311  0.58304971  0.45879916    -0.21700
C730        C  0.48782181  0.58072637  0.45836157    -0.21700
C731        C  0.08692483  0.99798723  0.40652011    -0.22800
C732        C  0.08722054  0.52377916  0.41618921    -0.22800
C733        C  0.42580142  0.97943809  0.41022158    -0.22800
C734        C  0.42549062  0.50908782  0.41947954    -0.22800
C735        C  0.05796462  0.96092004  0.42678711    -0.18100
C736        C  0.46313717  0.94979869  0.42790004    -0.18100
C737        C  0.45622602  0.54566397  0.43674950    -0.18100
C738        C  0.05159265  0.55410791  0.43776783    -0.18100
H739        H  0.04203803  0.91144111  0.46222491     0.14800
H740        H  0.49068292  0.90542417  0.46278578     0.14800
H741        H  0.02575629  0.60012764  0.46964411     0.14800
H742        H  0.47416389  0.59563768  0.46888635     0.14800
H743        H  0.10525173  0.98738892  0.40300883     0.13100
H744        H  0.10326059  0.53775451  0.41351535     0.13100
H745        H  0.41020382  0.96493844  0.40678726     0.13100
H746        H  0.40739867  0.52022198  0.41606115     0.13100
H747        H  0.50739474  0.97901177  0.40482169     0.26300
H748        H  0.50563945  0.52582910  0.41537555     0.26300
O749        O  0.49798718  0.95039062  0.88294223    -0.86300
O750        O  0.50567198  0.94537169  0.11954085    -0.86500
O751        O  0.05009964  0.92342594  0.99917387    -0.88100
O752        O  0.46690253  0.91392086  0.00723610    -0.86900
O753        O  0.43226788  0.94263211  0.01129385    -0.86500
O754        O  0.07879672  0.95829739  0.00006473    -0.87900
O755        O  0.50898742  0.91684421  0.06441718    -0.86300
O756        O  0.50353860  0.91964858  0.93483035    -0.85900
Zr757      Zr  0.50567248  0.94128390  0.00081912     2.84300
O758        O  0.47863157  0.96336709  0.04718450    -1.07900
O759        O  0.02730328  0.97054563  0.95720388    -1.08600
C760        C  0.50024076  0.92613720  0.89676400     1.06800
C761        C  0.50806716  0.92183281  0.10326524     1.06800
C762        C  0.07347139  0.93337210  0.00017994     1.09700
C763        C  0.44231487  0.91911882  0.01125047     1.07500
H764        H  0.04307948  0.95803479  0.05997956     0.33100
O765        O  0.03043291  0.96865615  0.04444769    -1.28800
H766        H  0.46425221  0.95330859  0.94440778     0.32700
O767        O  0.47532304  0.96524832  0.96036989    -1.30500
O768        O  0.50441844  0.53788269  0.12547480    -0.86300
O769        O  0.49303285  0.54350618  0.88812909    -0.87800
O770        O  0.07716489  0.99982054  0.06534749    -0.86400
O771        O  0.42752058  0.98688386  0.07243414    -0.86400
O772        O  0.42184196  0.49262608  0.94544366    -0.86100
O773        O  0.07160017  0.50183880  0.93346134    -0.85900
O774        O  0.03900742  0.57116380  0.00510817    -0.86300
O775        O  0.45532004  0.56705506  0.01490408    -0.85800
O776        O  0.07176220  0.54068445  0.99879733    -0.86800
O777        O  0.42485423  0.53374935  0.01437835    -0.86000
O778        O  0.04921040  0.99406081  0.11984258    -0.86400
O779        O  0.03949190  0.50098296  0.88251300    -0.86100
O780        O  0.44874987  0.49645020  0.88968464    -0.85800
O781        O  0.45865449  0.98956084  0.12451560    -0.86200
O782        O  0.50276641  0.56876718  0.07333432    -0.86500
O783        O  0.49488885  0.57140753  0.94395948    -0.87800
Zr784      Zr  0.50323743  0.99145508  0.09127206     2.83100
Zr785      Zr  0.49575587  0.49659454  0.91645633     2.83500
Zr786      Zr  0.05235700  0.99785860  0.00086339     2.84100
Zr787      Zr  0.44917705  0.98786167  0.00711721     2.83400
Zr788      Zr  0.49791588  0.54685546  0.00734275     2.84200
O789        O  0.47079240  0.52099030  0.96422464    -1.08400
O790        O  0.02662538  0.52139887  0.04726675    -1.07900
C791        C  0.50459164  0.56216337  0.11161039     1.06800
C792        C  0.49299175  0.56719149  0.90495653     1.09400
C793        C  0.07243500  0.99754273  0.10413178     1.07000
C794        C  0.43436456  0.98835268  0.11067017     1.07300
C795        C  0.42551663  0.49482117  0.90637452     1.06900
C796        C  0.06387226  0.50270149  0.89548936     1.06400
C797        C  0.06331947  0.56459328  0.00166794     1.06900
C798        C  0.43166531  0.55834449  0.01745028     1.06400
H799        H  0.03249498  0.53538886  0.94377693     0.33100
O800        O  0.02262309  0.52304538  0.96034564    -1.29500
H801        H  0.46398004  0.52935770  0.06870543     0.33100
O802        O  0.47473983  0.51881128  0.05084564    -1.30900
N803        N  0.25639237  0.78595339  0.08552697    -0.36400
N804        N  0.29117788  0.74059637  0.08612829    -0.57000
N805        N  0.24704688  0.70502226  0.07182021    -0.36400
N806        N  0.21213898  0.75003186  0.06895161    -0.57000
C807        C  0.27979222  0.79829262  0.08047947     0.27200
C808        C  0.23741467  0.80354799  0.07502991     0.27200
C809        C  0.26729044  0.68855529  0.06423085     0.27200
C810        C  0.22529574  0.69357626  0.05533825     0.27200
C811        C  0.30914422  0.75970001  0.09389504     0.35800
C812        C  0.30394205  0.71730367  0.08978198     0.35800
C813        C  0.19873557  0.77284782  0.07402338     0.35800
C814        C  0.19394816  0.73053303  0.06587789     0.35800
C815        C  0.27554281  0.82432944  0.06834100    -0.21700
C816        C  0.24882062  0.82771785  0.06526612    -0.21700
C817        C  0.25822177  0.66616131  0.04348039    -0.21700
C818        C  0.23166687  0.66932091  0.03792611    -0.21700
C819        C  0.33339142  0.74852754  0.10322382    -0.22800
C820        C  0.33005939  0.72158928  0.10089254    -0.22800
C821        C  0.17188637  0.76779119  0.07376125    -0.22800
C822        C  0.16887899  0.74094473  0.06872716    -0.22800
C823        C  0.30494869  0.78681516  0.08617464    -0.18100
C824        C  0.21007124  0.79842707  0.07346258    -0.18100
C825        C  0.19961668  0.70377580  0.05728724    -0.18100
C826        C  0.29368317  0.69282915  0.07618485    -0.18100
H827        H  0.29016796  0.83932799  0.06197686     0.14800
H828        H  0.23896998  0.84580932  0.05591669     0.14800
H829        H  0.26953493  0.64924857  0.03336180     0.14800
H830        H  0.21856552  0.65532746  0.02275255     0.14800
H831        H  0.35179053  0.75875445  0.10916505     0.13100
H832        H  0.34546187  0.70692225  0.10444904     0.13100
H833        H  0.15604576  0.78202809  0.07580578     0.13100
H834        H  0.15036887  0.73039696  0.06634896     0.13100
H835        H  0.25332424  0.76717172  0.09763155     0.26300
H836        H  0.24763870  0.72166375  0.09072486     0.26300
C837        C  0.50342160  0.74385016  0.25621884    -0.02300
C838        C  0.25404499  0.99947883  0.24951003    -0.02300
C839        C  0.51167633  0.74582260  0.75077048    -0.02300
C840        C  0.24564429  0.00426701  0.75842184    -0.02300
C841        C  0.09632367  0.99909392  0.13133956    -0.11800
C842        C  0.10725788  0.97636912  0.15020266     0.03700
C843        C  0.13312141  0.97695929  0.16634110    -0.12300
C844        C  0.14827663  0.00038147  0.16614934     0.18600
C845        C  0.13956544  0.52406637  0.14548949    -0.09400
C846        C  0.11439491  0.52345414  0.12640478    -0.02300
H847        H  0.14139841  0.95902581  0.17954016     0.05100
C848        C  0.17539553  0.00043798  0.18545648     0.20500
H849        H  0.10775867  0.54056812  0.10895126     0.10300
C850        C  0.19958230  0.50634974  0.16438465    -0.15700
C851        C  0.22495100  0.50714977  0.18349012     0.03200
C852        C  0.22751961  0.99942269  0.22266861    -0.11000
C853        C  0.20421081  0.99424437  0.24502874    -0.01000
C854        C  0.17897536  0.99470960  0.22739933    -0.06200
H855        H  0.19781913  0.51020054  0.13161623     0.06300
H856        H  0.20556775  0.98952254  0.27735129     0.09600
Br857      Br  0.15902623  0.55667517  0.14471674    -0.05900
Br858      Br  0.08778303  0.94398102  0.15426954    -0.02800
Br859      Br  0.25285236  0.51904588  0.14891860     0.00000
Br860      Br  0.14975389  0.98879929  0.26313849    -0.04400
C861        C  0.41135919  0.99064440  0.13856252    -0.11800
C862        C  0.40177319  0.96913941  0.16186604     0.03700
C863        C  0.37615561  0.96993792  0.17823473    -0.12300
C864        C  0.35925140  0.99160334  0.17054574     0.18600
C865        C  0.36596716  0.51169039  0.14331508    -0.09400
C866        C  0.39130587  0.51246696  0.12697299    -0.02300
H867        H  0.36924574  0.95338093  0.19636834     0.05100
C868        C  0.33248745  0.99311945  0.18945713     0.20500
H869        H  0.39535907  0.52690303  0.10313179     0.10300
C870        C  0.32882888  0.51317497  0.22285177    -0.15700
C871        C  0.30469847  0.51631722  0.24283279     0.03200
C872        C  0.28122981  0.00046033  0.22588196    -0.11000
C873        C  0.28643402  0.97996301  0.19675570    -0.01000
C874        C  0.31134016  0.97633576  0.17873818    -0.06200
H875        H  0.34519204  0.52604044  0.23111466     0.06300
H876        H  0.27085002  0.96641129  0.18783886     0.09600
Br877      Br  0.34036616  0.53619946  0.12193262    -0.05900
Br878      Br  0.42202699  0.93743342  0.16898348    -0.02800
Br879      Br  0.30879438  0.54198815  0.28685026     0.00000
Br880      Br  0.31552265  0.94847450  0.13905599    -0.04400
C881        C  0.50950690  0.89773010  0.12958340    -0.11800
C882        C  0.02967828  0.87888096  0.12365164     0.03700
C883        C  0.02784073  0.85336321  0.14064575    -0.12300
C884        C  0.50601227  0.84583209  0.16381984     0.18600
C885        C  0.48608914  0.86490209  0.17066914    -0.09400
C886        C  0.48794480  0.89049385  0.15357728    -0.02300
H887        H  0.04371810  0.83939564  0.13613892     0.05100
C888        C  0.50607924  0.81940146  0.18493334     0.20500
H889        H  0.47190647  0.90432713  0.15741250     0.10300
C890        C  0.00835589  0.81913617  0.22770200    -0.15700
C891        C  0.00797855  0.79550928  0.25010743     0.03200
C892        C  0.50623498  0.77010961  0.22985518    -0.11000
C893        C  0.50540840  0.77066853  0.18617680    -0.01000
C894        C  0.50475164  0.79483324  0.16398621    -0.06200
H895        H  0.00960027  0.83784189  0.24415974     0.06300
H896        H  0.50499120  0.75238900  0.16884645     0.09600
Br897      Br  0.45523912  0.85652920  0.20138038    -0.05900
Br898      Br  0.06041528  0.88721251  0.09264592    -0.02800
Br899      Br  0.00621260  0.80117253  0.30870206     0.00000
Br900      Br  0.50040230  0.79332451  0.10524260    -0.04400
C901        C  0.50669356  0.58518298  0.14038852    -0.11800
C902        C  0.02568920  0.60518462  0.13370263     0.03700
C903        C  0.02366527  0.62995362  0.15303294    -0.12300
C904        C  0.00281102  0.63571545  0.17931455     0.18600
C905        C  0.48450319  0.61541143  0.18779056    -0.09400
C906        C  0.48651138  0.59042660  0.16837332    -0.02300
H907        H  0.03833811  0.64501472  0.14707525     0.05100
C908        C  0.00176674  0.66260744  0.19888130     0.20500
H909        H  0.47149524  0.57559538  0.17350609     0.10300
C910        C  0.48374905  0.68196006  0.18541417    -0.15700
C911        C  0.48365928  0.70797074  0.20219833     0.03200
C912        C  0.50290803  0.71594081  0.23258799    -0.11000
C913        C  0.02023723  0.69517316  0.24602597    -0.01000
C914        C  0.01983006  0.66951909  0.22987422    -0.06200
H915        H  0.46937484  0.67669462  0.16179075     0.06300
H916        H  0.03386519  0.69765365  0.27148160     0.09600
Br917      Br  0.45633827  0.62104429  0.22529192    -0.05900
Br918      Br  0.05485483  0.59987131  0.09796457    -0.02800
Br919      Br  0.45532007  0.73001893  0.18275801     0.00000
Br920      Br  0.04372486  0.64394222  0.25341754    -0.04400
C921        C  0.09582203  0.91509285  0.00562360    -0.11800
C922        C  0.09497025  0.88864056  0.99148351     0.03700
C923        C  0.11436325  0.87083673  0.00455353    -0.12300
C924        C  0.13507467  0.87913541  0.03061090     0.18600
C925        C  0.13723412  0.90600644  0.04168174    -0.09400
C926        C  0.11753437  0.92367393  0.02957482    -0.02300
H927        H  0.11332706  0.85038563  0.99431157     0.05100
C928        C  0.15516072  0.85970409  0.04321519     0.20500
H929        H  0.11885276  0.94404377  0.04012061     0.10300
C930        C  0.16981931  0.84756161  0.01230649    -0.15700
C931        C  0.18810835  0.82800507  0.02208048     0.03200
C932        C  0.19231636  0.82069867  0.06345151    -0.11000
C933        C  0.17800367  0.83302379  0.09468760    -0.01000
C934        C  0.15911661  0.85222626  0.08478629    -0.06200
H935        H  0.16663956  0.85300724  0.98030536     0.06300
H936        H  0.18083461  0.82693983  0.12647469     0.09600
Br937      Br  0.16696535  0.91965150  0.07224752    -0.05900
Br938      Br  0.06873171  0.87600725  0.95292330    -0.02800
Br939      Br  0.20616077  0.81095155  0.97780626     0.00000
Br940      Br  0.13797573  0.86603808  0.12844558    -0.04400
C941        C  0.42453084  0.89649173  0.01832083    -0.11800
C942        C  0.39853833  0.89619506  0.00258413     0.03700
C943        C  0.38126263  0.87627732  0.01473821    -0.12300
C944        C  0.38958776  0.85613024  0.04164234     0.18600
C945        C  0.41605936  0.85506681  0.05468824    -0.09400
C946        C  0.43327347  0.87535294  0.04336003    -0.02300
H947        H  0.36112062  0.87657937  0.00333725     0.05100
C948        C  0.37007355  0.83651679  0.05516845     0.20500
H949        H  0.45335469  0.87493512  0.05502657     0.10300
C950        C  0.35883118  0.81949589  0.02564268    -0.15700
C951        C  0.33799655  0.80291043  0.03581508     0.03200
C952        C  0.32820376  0.80310939  0.07616361    -0.11000
C953        C  0.33968476  0.81975389  0.10604912    -0.01000
C954        C  0.36049221  0.83656183  0.09575029    -0.06200
H955        H  0.36581105  0.81970939  0.99424932     0.06300
H956        H  0.33197458  0.82016111  0.13698514     0.09600
Br957      Br  0.42946021  0.82617069  0.08730863    -0.05900
Br958      Br  0.38594510  0.92145849  0.96263522    -0.02800
Br959      Br  0.32242636  0.78142035  0.99303365     0.00000
Br960      Br  0.37392213  0.86051477  0.13709243    -0.04400
C961        C  0.41084362  0.57788581  0.02530096    -0.11800
C962        C  0.41554735  0.60099786  0.04926724     0.03700
C963        C  0.39476150  0.61783725  0.05821491    -0.12300
C964        C  0.36953235  0.61266277  0.04275157     0.18600
C965        C  0.36491320  0.59062138  0.01719887    -0.09400
C966        C  0.38540605  0.57304528  0.00940378    -0.02300
H967        H  0.39832783  0.63535274  0.07692281     0.05100
C968        C  0.34884184  0.63181800  0.05129709     0.20500
H969        H  0.38154862  0.55581836  0.99022302     0.10300
C970        C  0.34246355  0.65041571  0.02081911    -0.15700
C971        C  0.32451123  0.67044001  0.02876581     0.03200
C972        C  0.31251465  0.67162885  0.06744890    -0.11000
C973        C  0.31861384  0.65290127  0.09790699    -0.01000
C974        C  0.33708124  0.63316679  0.09023781    -0.06200
H975        H  0.35196262  0.64967624  0.99116527     0.06300
H976        H  0.30942199  0.65402849  0.12776920     0.09600
Br977      Br  0.33118575  0.58430680  0.99167225    -0.05900
Br978      Br  0.44928873  0.61110841  0.07181336    -0.02800
Br979      Br  0.31733725  0.69614934  0.98646036     0.00000
Br980      Br  0.34628607  0.60918563  0.13396717    -0.04400
C981        C  0.08343412  0.58557859  0.00344093    -0.11800
C982        C  0.07792497  0.61234740  0.99385528     0.03700
C983        C  0.09704345  0.63166396  0.00161576    -0.12300
C984        C  0.12198190  0.62469129  0.01711944     0.18600
C985        C  0.12797755  0.59785287  0.02429962    -0.09400
C986        C  0.10873527  0.57866226  0.01782464    -0.02300
H987        H  0.09240885  0.65229523  0.99567029     0.05100
C988        C  0.14111146  0.64574616  0.02708130     0.20500
H989        H  0.11355719  0.55823997  0.02507046     0.10300
C990        C  0.15046070  0.64818550  0.06782795    -0.15700
C991        C  0.16919438  0.66732306  0.07826188     0.03200
C992        C  0.17779189  0.68524321  0.04814202    -0.11000
C993        C  0.16802729  0.68328331  0.00760757    -0.01000
C994        C  0.15008799  0.66339344  0.99672996    -0.06200
H995        H  0.14365076  0.63468252  0.09135332     0.06300
H996        H  0.17534570  0.69647850  0.98406651     0.09600
Br997      Br  0.16220867  0.58612276  0.04210622    -0.05900
Br998      Br  0.04537869  0.62391575  0.96888109    -0.02800
Br999      Br  0.18363508  0.66730238  0.13326202     0.00000
Br1000     Br  0.14020580  0.65972871  0.93962252    -0.04400
C1001       C  0.27024755  0.50215772  0.78332913    -0.11800
C1002       C  0.28108341  0.97765226  0.80439626     0.03700
C1003       C  0.30675025  0.97542031  0.82160981    -0.12300
C1004       C  0.32320178  0.49704578  0.81825307     0.18600
C1005       C  0.31483464  0.52065191  0.79959678    -0.09400
C1006       C  0.28948204  0.52289082  0.78231097    -0.02300
H1007       H  0.31255254  0.95715731  0.83677459     0.05100
C1008       C  0.34959676  0.49551069  0.83994956     0.20500
H1009       H  0.28602133  0.54140352  0.76689374     0.10300
C1010       C  0.37234128  0.48653490  0.81974434    -0.15700
C1011       C  0.39739252  0.48650470  0.83979473     0.03200
C1012       C  0.40025710  0.49594259  0.88081606    -0.11000
C1013       C  0.37956998  0.00528293  0.89996419    -0.01000
C1014       C  0.35469671  0.00539517  0.88074419    -0.06200
H1015       H  0.37060334  0.47939692  0.78831393     0.06300
H1016       H  0.38134678  0.01363357  0.93067455     0.09600
Br1017     Br  0.33769734  0.55091991  0.79673263    -0.05900
Br1018     Br  0.25996271  0.94612986  0.80895258    -0.02800
Br1019     Br  0.42652381  0.47189925  0.81063690     0.00000
Br1020     Br  0.32571607  0.02056256  0.90981692    -0.04400
C1021       C  0.08574212  0.50512383  0.86581958    -0.11800
C1022       C  0.09778811  0.52983317  0.85777743     0.03700
C1023       C  0.12281488  0.53088228  0.83948373    -0.12300
C1024       C  0.13665986  0.50748019  0.83002853     0.18600
C1025       C  0.12846439  0.97761115  0.84414695    -0.09400
C1026       C  0.10329227  0.97626461  0.86154006    -0.02300
H1027       H  0.13188190  0.54998031  0.83399610     0.05100
C1028       C  0.16398285  0.50867028  0.81293219     0.20500
H1029       H  0.09633948  0.95743282  0.87322907     0.10300
C1030       C  0.18818586  0.99962094  0.84021204    -0.15700
C1031       C  0.21418247  0.00048055  0.82532791     0.03200
C1032       C  0.21650454  0.50554825  0.77971779    -0.11000
C1033       C  0.19390101  0.51236335  0.75521493    -0.01000
C1034       C  0.16839600  0.51397348  0.77117484    -0.06200
H1035       H  0.18507964  0.99548338  0.87254700     0.06300
H1036       H  0.19591311  0.51537652  0.72236417     0.09600
Br1037     Br  0.14819478  0.94533650  0.83967498    -0.05900
Br1038     Br  0.08136574  0.56245580  0.87390892    -0.02800
Br1039     Br  0.24059948  0.99864237  0.86830848     0.00000
Br1040     Br  0.13982167  0.52171219  0.73383794    -0.04400
C1041       C  0.51175892  0.72080833  0.78067576    -0.11800
C1042       C  0.03223902  0.70141642  0.78673297     0.03700
C1043       C  0.02697555  0.67709185  0.80655455    -0.12300
C1044       C  0.50220101  0.67081784  0.82228416     0.18600
C1045       C  0.48322949  0.69139872  0.82219881    -0.09400
C1046       C  0.48856595  0.71608297  0.80341188    -0.02300
H1047       H  0.04269880  0.66273835  0.81005882     0.05100
C1048       C  0.49740964  0.64342992  0.84040352     0.20500
H1049       H  0.47290148  0.73061740  0.80228910     0.10300
C1050       C  0.98639956  0.64112170  0.87956044    -0.15700
C1051       C  0.98199153  0.61635990  0.89794795     0.03200
C1052       C  0.49138621  0.59250140  0.87978580    -0.11000
C1053       C  0.50188416  0.59451691  0.83998083    -0.01000
C1054       C  0.50411229  0.61943320  0.81989906    -0.06200
H1055       H  0.98091034  0.65881541  0.89626296     0.06300
H1056       H  0.50860176  0.57678024  0.82451511     0.09600
Br1057     Br  0.44776111  0.68570809  0.83964720    -0.05900
Br1058     Br  0.06905926  0.70577982  0.77601988    -0.02800
Br1059     Br  0.96107971  0.61695652  0.94690330     0.00000
Br1060     Br  0.51480795  0.61934372  0.76344647    -0.04400
C1061       C  0.50656553  0.77121089  0.77970823    -0.11800
C1062       C  0.02429180  0.78022632  0.81170838     0.03700
C1063       C  0.02192854  0.80593251  0.82884293    -0.12300
C1064       C  0.50144670  0.82305886  0.81707117     0.18600
C1065       C  0.48184277  0.81303145  0.79043806    -0.09400
C1066       C  0.48366749  0.78720024  0.77461810    -0.02300
H1067       H  0.03639864  0.81270929  0.85136972     0.05100
C1068       C  0.49983537  0.85058861  0.83460959     0.20500
H1069       H  0.46660224  0.78022998  0.75785360     0.10300
C1070       C  0.51728871  0.87064170  0.82175856    -0.15700
C1071       C  0.51634369  0.89650331  0.83866319     0.03200
C1072       C  0.49776780  0.90266885  0.86899786    -0.11000
C1073       C  0.97993460  0.88278864  0.88072286    -0.01000
C1074       C  0.98091596  0.85712633  0.86422633    -0.06200
H1075       H  0.53197385  0.86604274  0.79901762     0.06300
H1076       H  0.96595217  0.88687864  0.90480652     0.09600
Br1077     Br  0.45257148  0.83438037  0.77261414    -0.05900
Br1078     Br  0.05351211  0.76013421  0.83255988    -0.02800
Br1079     Br  0.54180978  0.92222476  0.82187410     0.00000
Br1080     Br  0.95718037  0.83118766  0.88584379    -0.04400
C1081       C  0.35671171  0.75344588  0.62625704    -0.11800
C1082       C  0.36295012  0.76803325  0.66258706     0.03700
C1083       C  0.38902967  0.76768578  0.67933556    -0.12300
C1084       C  0.40955408  0.75377399  0.65977620     0.18600
C1085       C  0.40332830  0.73998735  0.62328001    -0.09400
C1086       C  0.37749977  0.73933875  0.60780900    -0.02300
H1087       H  0.39334008  0.77849783  0.70751865     0.05100
C1088       C  0.43668980  0.75119106  0.67900034     0.20500
H1089       H  0.37389917  0.72804923  0.57984110     0.10300
C1090       C  0.44316190  0.72751795  0.69898399    -0.15700
C1091       C  0.46843782  0.72270671  0.71553527     0.03200
C1092       C  0.48788043  0.74353004  0.71760731    -0.11000
C1093       C  0.48254164  0.76535975  0.69078693    -0.01000
C1094       C  0.45727355  0.76942735  0.67243837    -0.06200
H1095       H  0.42858298  0.71182782  0.69966815     0.06300
H1096       H  0.49714104  0.78085976  0.68779395     0.09600
Br1097     Br  0.42989354  0.72259973  0.59181390    -0.05900
Br1098     Br  0.33740955  0.78992054  0.68900489    -0.02800
Br1099     Br  0.47444979  0.68535164  0.72429884     0.00000
Br1100     Br  0.45129626  0.80029133  0.63917253    -0.04400
C1101       C  0.03850659  0.74943891  0.72597212    -0.11800
C1102       C  0.04814831  0.73086794  0.69620965     0.03700
C1103       C  0.07410647  0.73260168  0.68108055    -0.12300
C1104       C  0.09147757  0.75276163  0.69368404     0.18600
C1105       C  0.08137645  0.77285653  0.71895958    -0.09400
C1106       C  0.05520849  0.77185937  0.73250455    -0.02300
H1107       H  0.08090787  0.71779567  0.65948921     0.05100
C1108       C  0.11872906  0.75463702  0.67608005     0.20500
H1109       H  0.04867310  0.78912045  0.74883072     0.10300
C1110       C  0.12425957  0.77568815  0.64936281    -0.15700
C1111       C  0.14883516  0.77828586  0.63076606     0.03200
C1112       C  0.16912354  0.75956425  0.63831583    -0.11000
C1113       C  0.16400303  0.73879276  0.66605924    -0.01000
C1114       C  0.13911950  0.73616907  0.68470866    -0.06200
H1115       H  0.10903749  0.79005533  0.64217122     0.06300
H1116       H  0.17884636  0.72374569  0.67151848     0.09600
Br1117     Br  0.10313601  0.80178592  0.73764496    -0.05900
Br1118     Br  0.02865276  0.70131164  0.67544682    -0.02800
Br1119     Br  0.15317766  0.80771489  0.59390402     0.00000
Br1120     Br  0.13389337  0.70675220  0.72100445    -0.04400
C1121       C  0.24421375  0.53177640  0.73167765    -0.11800
C1122       C  0.24050245  0.55675465  0.75255534     0.03700
C1123       C  0.24182131  0.58104190  0.73162522    -0.12300
C1124       C  0.24720248  0.58253329  0.68970690     0.18600
C1125       C  0.25070678  0.55843210  0.66814958    -0.09400
C1126       C  0.24855630  0.53361738  0.68858564    -0.02300
H1127       H  0.23943339  0.59931334  0.74882294     0.05100
C1128       C  0.24974598  0.60963832  0.67030283     0.20500
H1129       H  0.25078824  0.51592267  0.67025158     0.10300
C1130       C  0.27414524  0.61828023  0.65550076    -0.15700
C1131       C  0.27722509  0.64377257  0.63836111     0.03200
C1132       C  0.25609305  0.66201994  0.63728963    -0.11000
C1133       C  0.23177778  0.65354430  0.65268025    -0.01000
C1134       C  0.22846214  0.62772562  0.66870447    -0.06200
H1135       H  0.29080219  0.60490951  0.65646135     0.06300
H1136       H  0.21481707  0.66643891  0.64975872     0.09600
Br1137     Br  0.25827037  0.55856784  0.61041898    -0.05900
Br1138     Br  0.23640175  0.56097324  0.81100077    -0.02800
Br1139     Br  0.31027336  0.65219943  0.61372309     0.00000
Br1140     Br  0.19377894  0.61707881  0.68427365    -0.04400
C1141       C  0.26724684  0.85134674  0.62656170    -0.11800
C1142       C  0.27674497  0.87534438  0.60884007     0.03700
C1143       C  0.27354723  0.89985097  0.62874760    -0.12300
C1144       C  0.26314664  0.90172572  0.66836231     0.18600
C1145       C  0.25602229  0.87752213  0.68800553    -0.09400
C1146       C  0.25757386  0.85292648  0.66689870    -0.02300
H1147       H  0.27909780  0.91773162  0.61261580     0.05100
C1148       C  0.25809311  0.92894058  0.68694919     0.20500
H1149       H  0.25073738  0.83508157  0.68190833     0.10300
C1150       C  0.23329678  0.93429960  0.70257583    -0.15700
C1151       C  0.22752612  0.95768778  0.72438140     0.03200
C1152       C  0.24640504  0.97925038  0.72764027    -0.11000
C1153       C  0.27027870  0.97465475  0.70631897    -0.01000
C1154       C  0.27663160  0.94990588  0.68826090    -0.06200
H1155       H  0.21839671  0.91898040  0.69986784     0.06300
H1156       H  0.28541658  0.98977416  0.70711869     0.09600
Br1157     Br  0.24485766  0.87651797  0.74425828    -0.05900
Br1158     Br  0.29588195  0.87668930  0.55817789    -0.02800
Br1159     Br  0.19482920  0.95265564  0.75236550     0.00000
Br1160     Br  0.31205625  0.94527401  0.67000795    -0.04400
C1161       C  0.33845940  0.65972889  0.49257131    -0.11800
C1162       C  0.32984844  0.63405098  0.48003128     0.03700
C1163       C  0.34827908  0.61416388  0.47294005    -0.12300
C1164       C  0.37511151  0.61922493  0.47772501     0.18600
C1165       C  0.38382973  0.64433484  0.49070520    -0.09400
C1166       C  0.36557520  0.66431752  0.49820895    -0.02300
H1167       H  0.34170233  0.59477094  0.46261019     0.05100
C1168       C  0.39397400  0.59857246  0.46678696     0.20500
H1169       H  0.37273237  0.68362908  0.50788076     0.10300
C1170       C  0.40244757  0.59699481  0.42595026    -0.15700
C1171       C  0.42235953  0.57936993  0.41529030     0.03200
C1172       C  0.43395755  0.56329481  0.44589299    -0.11000
C1173       C  0.42467735  0.56409391  0.48633502    -0.01000
C1174       C  0.40463742  0.58153975  0.49690712    -0.06200
H1175       H  0.39395039  0.60991262  0.40262798     0.06300
H1176       H  0.43336262  0.55138696  0.50976723     0.09600
Br1177     Br  0.42057650  0.65231302  0.49712628    -0.05900
Br1178     Br  0.29378364  0.62439228  0.46888069    -0.02800
Br1179     Br  0.43334809  0.57799914  0.35905460     0.00000
Br1180     Br  0.39267091  0.58181112  0.55268550    -0.04400
C1181       C  0.16703246  0.66996327  0.50742876    -0.11800
C1182       C  0.14019993  0.67727926  0.50271499     0.03700
C1183       C  0.12151172  0.65799796  0.49245123    -0.12300
C1184       C  0.12871242  0.63143044  0.48812746     0.18600
C1185       C  0.15474828  0.62363710  0.49609701    -0.09400
C1186       C  0.17367337  0.64280715  0.50551642    -0.02300
H1187       H  0.10117515  0.66375844  0.48759111     0.05100
C1188       C  0.10865103  0.61205185  0.47551075     0.20500
H1189       H  0.19381728  0.63634774  0.51004666     0.10300
C1190       C  0.10244345  0.60899782  0.43350170    -0.15700
C1191       C  0.08358229  0.59047107  0.42063180     0.03200
C1192       C  0.07096744  0.57467335  0.45006453    -0.11000
C1193       C  0.07704161  0.57800140  0.49213525    -0.01000
C1194       C  0.09561683  0.59676920  0.50500397    -0.06200
H1195       H  0.11234598  0.62099058  0.41078237     0.06300
H1196       H  0.06722660  0.56599632  0.51492257     0.09600
Br1197     Br  0.16535984  0.58713517  0.49327909    -0.05900
Br1198     Br  0.12691288  0.71272925  0.50952721    -0.02800
Br1199     Br  0.07565545  0.58716849  0.36285367     0.00000
Br1200     Br  0.10253157  0.60135032  0.56294005    -0.04400
C1201       C  0.17615518  0.84659732  0.49178625    -0.11800
C1202       C  0.18244746  0.87375779  0.49849230     0.03700
C1203       C  0.16411096  0.89347203  0.48807908    -0.12300
C1204       C  0.13940198  0.88685580  0.47136951     0.18600
C1205       C  0.13282111  0.85998377  0.46566872    -0.09400
C1206       C  0.15100855  0.84023662  0.47593894    -0.02300
H1207       H  0.16921077  0.91414510  0.49279684     0.05100
C1208       C  0.12062855  0.90805978  0.45980461     0.20500
H1209       H  0.14559203  0.81975549  0.47027383     0.10300
C1210       C  0.11343120  0.91135750  0.41810260    -0.15700
C1211       C  0.09355761  0.92912370  0.40656749     0.03200
C1212       C  0.08090994  0.94405918  0.43694650    -0.11000
C1213       C  0.08899611  0.94185512  0.47830477    -0.01000
C1214       C  0.10869322  0.92397807  0.48994252    -0.06200
H1215       H  0.12274366  0.89944546  0.39466146     0.06300
H1216       H  0.07925811  0.95343141  0.50173301     0.06800
Br1217     Br  0.09911094  0.84916226  0.44404160    -0.05900
Br1218     Br  0.21524105  0.88580465  0.52219919    -0.02800
Br1219     Br  0.08353885  0.93182893  0.34946596     0.00000
Br1220     Br  0.11730544  0.92088970  0.54753219    -0.04400
C1221       C  0.44503016  0.92781940  0.43655488    -0.11800
C1222       C  0.43560606  0.91108696  0.40493448     0.03700
C1223       C  0.41770578  0.89111413  0.41424124    -0.12300
C1224       C  0.40957534  0.88754923  0.45490653     0.18600
C1225       C  0.41997660  0.90342406  0.48681381    -0.09400
C1226       C  0.43739337  0.92371702  0.47737074    -0.02300
H1227       H  0.40976566  0.87866384  0.38978586     0.05100
C1228       C  0.38877618  0.86859657  0.46360836     0.20500
H1229       H  0.44499193  0.93639299  0.50179549     0.10300
C1230       C  0.39495987  0.84569339  0.48596376    -0.15700
C1231       C  0.37513023  0.82887888  0.49928524     0.03200
C1232       C  0.34868511  0.83450842  0.48845792    -0.11000
C1233       C  0.34268420  0.85773869  0.46632623    -0.01000
C1234       C  0.36250714  0.87480752  0.45402658    -0.06200
H1235       H  0.41523648  0.84148582  0.49438700     0.06300
H1236       H  0.32256199  0.86237484  0.45756340     0.09600
Br1237     Br  0.41025431  0.89847472  0.54333262    -0.05900
Br1238     Br  0.44639788  0.91513326  0.34894113    -0.02800
Br1239     Br  0.38554639  0.79998058  0.53454652     0.00000
Br1240     Br  0.35275766  0.90672089  0.42530983    -0.04400
C1241       C  0.15937701  0.74701553  0.37989233    -0.11800
C1242       C  0.14960845  0.76673753  0.35310893     0.03700
C1243       C  0.12333047  0.76569695  0.33852750    -0.12300
C1244       C  0.10597496  0.74510374  0.34985534     0.18600
C1245       C  0.11612581  0.72488017  0.37583581    -0.09400
C1246       C  0.14226640  0.72622670  0.39082360    -0.02300
H1247       H  0.11634959  0.78117175  0.31796985     0.05100
C1248       C  0.07914121  0.74372116  0.32906922     0.20500
H1249       H  0.14922486  0.71104384  0.41196995     0.10300
C1250       C  0.07846278  0.74299799  0.28606921    -0.15700
C1251       C  0.05489095  0.74374466  0.26328975     0.03200
C1252       C  0.02978973  0.74458362  0.28310608    -0.11000
C1253       C  0.03060208  0.74507560  0.32677626    -0.01000
C1254       C  0.05469671  0.74499457  0.34951827    -0.06200
H1255       H  0.09684111  0.74191767  0.26966729     0.06300
H1256       H  0.01251024  0.74648304  0.34362985     0.09600
Br1257     Br  0.09590722  0.69433406  0.39089725    -0.05900
Br1258     Br  0.17113999  0.79606316  0.33713525    -0.02800
Br1259     Br  0.05976397  0.74120895  0.20462794     0.00000
Br1260     Br  0.05280156  0.74862204  0.40819189    -0.04400
C1261       C  0.34464056  0.75076036  0.36420823    -0.11800
C1262       C  0.36167766  0.77287582  0.36487608     0.03700
C1263       C  0.38645725  0.77154218  0.34653098    -0.12300
C1264       C  0.39478148  0.74853786  0.32594805     0.18600
C1265       C  0.37683531  0.72714125  0.32231531    -0.09400
C1266       C  0.35223247  0.72822747  0.34182796    -0.02300
H1267       H  0.39953726  0.78845851  0.34909031     0.05100
C1268       C  0.42220292  0.74740801  0.30915003     0.20500
H1269       H  0.33946847  0.71105678  0.34077750     0.10300
C1270       C  0.44021861  0.72802375  0.32278005    -0.15700
C1271       C  0.46626848  0.72668848  0.30798511     0.03200
C1272       C  0.47578639  0.74572522  0.27905920    -0.11000
C1273       C  0.45667833  0.76501479  0.26596550    -0.01000
C1274       C  0.43091994  0.76599548  0.28036537    -0.06200
H1275       H  0.43383065  0.71347220  0.34504448     0.06300
H1276       H  0.46048042  0.77908527  0.24183218     0.09600
Br1277     Br  0.38478748  0.69624923  0.29034312    -0.05900
Br1278     Br  0.35189639  0.80541819  0.39105335    -0.02800
Br1279     Br  0.48628742  0.69705676  0.32809665     0.00000
Br1280     Br  0.40778439  0.79215366  0.25635686    -0.04400
C1281       C  0.25839015  0.84159657  0.36449045    -0.11800
C1282       C  0.23787142  0.86025785  0.36728780     0.03700
C1283       C  0.23957785  0.88484282  0.34766328    -0.12300
C1284       C  0.26175584  0.89183392  0.32507804     0.18600
C1285       C  0.28235413  0.87317088  0.32153192    -0.09400
C1286       C  0.28055301  0.84821808  0.34114085    -0.02300
H1287       H  0.22356180  0.89885252  0.35056908     0.05100
C1288       C  0.26191699  0.91843144  0.30477882     0.20500
H1289       H  0.29694043  0.83454611  0.33973385     0.10300
C1290       C  0.27611187  0.93965548  0.32199490    -0.15700
C1291       C  0.27408442  0.96564133  0.30588129     0.03200
C1292       C  0.25603308  0.97168511  0.27277252    -0.11000
C1293       C  0.24322666  0.94914050  0.25471429    -0.01000
C1294       C  0.24576480  0.92340305  0.27038554    -0.06200
H1295       H  0.28887229  0.93597740  0.34843847     0.06300
H1296       H  0.23156474  0.95084732  0.22674619     0.09600
Br1297     Br  0.31336915  0.88120217  0.29113830    -0.05900
Br1298     Br  0.20727307  0.85348206  0.39918301    -0.02800
Br1299     Br  0.29684743  0.99084773  0.33235519     0.00000
Br1300     Br  0.22718111  0.89516587  0.24276060    -0.04400
C1301       C  0.25088620  0.52663015  0.27970441    -0.11800
C1302       C  0.24351060  0.52981871  0.32186723     0.03700
C1303       C  0.24311988  0.55542323  0.33997705    -0.12300
C1304       C  0.24778599  0.57857333  0.31693528     0.18600
C1305       C  0.25150763  0.57579839  0.27440507    -0.09400
C1306       C  0.25265705  0.55052676  0.25647896    -0.02300
H1307       H  0.23845870  0.55736001  0.37231340     0.05100
C1308       C  0.24822267  0.60548209  0.33711464     0.20500
H1309       H  0.25637028  0.54956033  0.22381835     0.10300
C1310       C  0.27186230  0.62005042  0.33946270    -0.15700
C1311       C  0.27300881  0.64525901  0.35834699     0.03200
C1312       C  0.25025685  0.65665428  0.37533373    -0.11000
C1313       C  0.22658734  0.64219661  0.37261195    -0.01000
C1314       C  0.22538147  0.61708490  0.35345563    -0.06200
H1315       H  0.28965256  0.61155286  0.32712937     0.06300
H1316       H  0.20899003  0.65027833  0.38620104     0.09600
Br1317     Br  0.25507923  0.60606183  0.23907276    -0.05900
Br1318     Br  0.22953677  0.50222153  0.35607264    -0.02800
Br1319     Br  0.30644783  0.66269153  0.36266431     0.00000
Br1320     Br  0.19196697  0.59950999  0.34960454    -0.04400
O1321       O  0.74961530  0.20179024  0.38661100    -0.86300
O1322       O  0.75751847  0.20956625  0.62304702    -0.86500
O1323       O  0.79181645  0.17314110  0.49966704    -0.88100
O1324       O  0.70859201  0.17972541  0.50563321    -0.86900
O1325       O  0.67970661  0.21410499  0.50189045    -0.86500
O1326       O  0.82545222  0.20264327  0.49340874    -0.87900
O1327       O  0.75322286  0.17791831  0.57206936    -0.86300
O1328       O  0.74731926  0.17327999  0.44187198    -0.85900
Zr1329     Zr  0.75216361  0.19895114  0.50516440     2.84300
O1330       O  0.72975834  0.22844738  0.54786465    -1.07900
O1331       O  0.77866525  0.22137384  0.45843345    -1.08600
C1332       C  0.74739679  0.17820565  0.40284684     1.06800
C1333       C  0.75546487  0.18503660  0.61010837     1.06800
C1334       C  0.81605298  0.17890150  0.49382707     1.09700
C1335       C  0.68516490  0.18921929  0.50205436     1.07500
H1336       H  0.79288294  0.21279963  0.56117219     0.33100
O1337       O  0.78185241  0.22433252  0.54492432    -1.28800
H1338       H  0.71491805  0.21473729  0.44558255     0.32700
O1339       O  0.72723617  0.22566301  0.46095326    -1.30500
O1340       O  0.76205246  0.30160899  0.61584471    -0.86300
O1341       O  0.75369090  0.29307398  0.37984211    -0.87800
O1342       O  0.83320364  0.24828430  0.56075566    -0.86400
O1343       O  0.68278869  0.25726439  0.56880783    -0.86400
O1344       O  0.68010481  0.25345682  0.43840402    -0.86100
O1345       O  0.82893875  0.24268278  0.43149006    -0.85900
O1346       O  0.80416719  0.32183839  0.48870070    -0.86300
O1347       O  0.71995787  0.32849269  0.49514829    -0.85800
O1348       O  0.83333003  0.28733282  0.48963043    -0.86800
O1349       O  0.68607962  0.29907927  0.49983372    -0.86000
O1350       O  0.80644468  0.25396225  0.61650566    -0.86400
O1351       O  0.79759651  0.24422241  0.37960613    -0.86100
O1352       O  0.70817747  0.24933976  0.38376568    -0.85800
O1353       O  0.71420923  0.25659823  0.62074830    -0.86200
O1354       O  0.76318638  0.32887002  0.55945909    -0.86500
O1355       O  0.75806348  0.32489914  0.43051461    -0.87800
Zr1356     Zr  0.75934991  0.25435783  0.58866537     2.83100
Zr1357     Zr  0.75365200  0.24833751  0.41342870     2.83500
Zr1358     Zr  0.80780416  0.24710117  0.49752526     2.84100
Zr1359     Zr  0.70467684  0.25502674  0.50317495     2.83400
Zr1360     Zr  0.76036975  0.30326428  0.49661577     2.84200
O1361       O  0.73095304  0.27797640  0.45677872    -1.08400
O1362       O  0.78594501  0.27685052  0.54055525    -1.07900
C1363       C  0.76349170  0.32511884  0.59866047     1.06800
C1364       C  0.75530828  0.31756916  0.39270438     1.09400
C1365       C  0.82960867  0.25115737  0.59971131     1.07000
C1366       C  0.68979520  0.25763490  0.60716846     1.07300
C1367       C  0.68486705  0.25080329  0.39965827     1.06900
C1368       C  0.82185916  0.24245032  0.39320845     1.06400
C1369       C  0.82756630  0.31211720  0.48653719     1.06900
C1370       C  0.69536466  0.32276154  0.49670464     1.06400
H1371       H  0.79409141  0.28388250  0.43554189     0.33100
O1372       O  0.78289211  0.27413341  0.45367150    -1.29500
H1373       H  0.72375510  0.29329273  0.55892771     0.33100
O1374       O  0.73369042  0.28078693  0.54319778    -1.30900
N1375       N  0.01102162  0.46189509  0.42610271    -0.36400
N1376       N  0.54470544  0.00704217  0.41974815    -0.57000
N1377       N  0.00059034  0.04316855  0.41873083    -0.36400
N1378       N  0.96538297  0.99786643  0.42248482    -0.57000
C1379       C  0.53384561  0.44955920  0.43589058     0.27200
C1380       C  0.99133136  0.44548863  0.43730033     0.27200
C1381       C  0.52036642  0.05993527  0.42918535     0.27200
C1382       C  0.97794193  0.05504396  0.42963442     0.27200
C1383       C  0.56455262  0.48655616  0.42103983     0.35800
C1384       C  0.55773267  0.03001186  0.41411532     0.35800
C1385       C  0.95402458  0.47626628  0.42552269     0.35800
C1386       C  0.94746163  0.01725395  0.41696688     0.35800
C1387       C  0.52859939  0.42483544  0.45269051    -0.21700
C1388       C  0.00173719  0.42229614  0.45365133    -0.21700
C1389       C  0.51010877  0.08307998  0.44554148    -0.21700
C1390       C  0.98331161  0.07999247  0.44585134    -0.21700
C1391       C  0.58923006  0.49674379  0.41276773    -0.22800
C1392       C  0.58388882  0.02501361  0.40555564    -0.22800
C1393       C  0.92776250  0.48201820  0.41778148    -0.22800
C1394       C  0.92279529  0.00647862  0.40912832    -0.22800
C1395       C  0.55930176  0.45971469  0.42920698    -0.18100
C1396       C  0.96421762  0.45057911  0.43197292    -0.18100
C1397       C  0.95248474  0.04426876  0.42447904    -0.18100
C1398       C  0.54740017  0.05512559  0.42364843    -0.18100
H1399       H  0.54264884  0.41014965  0.46334649     0.14800
H1400       H  0.99109404  0.40531754  0.46517388     0.14800
H1401       H  0.52080126  0.10038156  0.45633425     0.14800
H1402       H  0.96938943  0.09443020  0.45707324     0.14800
H1403       H  0.60711257  0.48575619  0.40722271     0.13100
H1404       H  0.59943875  0.03936203  0.40119948     0.13100
H1405       H  0.91177673  0.46813255  0.41280321     0.13100
H1406       H  0.90443021  0.01700758  0.40464204     0.13100
H1407       H  0.00906069  0.47938276  0.40934276     0.26300
H1408       H  0.00223262  0.02559913  0.40214988     0.26300
O1409       O  0.99622560  0.45087269  0.88364380    -0.86300
O1410       O  0.00514923  0.44702698  0.12113138    -0.86500
O1411       O  0.54701509  0.42317760  0.99743633    -0.88100
O1412       O  0.96358123  0.41773387  0.01199881    -0.86900
O1413       O  0.93015899  0.44782499  0.01429102    -0.86500
O1414       O  0.57628679  0.45742633  0.99450001    -0.87900
O1415       O  0.00674791  0.41804241  0.06630782    -0.86300
O1416       O  0.00003892  0.42051865  0.93633571    -0.85900
Zr1417     Zr  0.00341859  0.44264238  0.00215503     2.84300
O1418       O  0.97750084  0.46661069  0.04769948    -1.07900
O1419       O  0.52545942  0.47094880  0.95735627    -1.08600
C1420       C  0.99744736  0.42655350  0.89789742     1.06800
C1421       C  0.00650406  0.42326794  0.10522013     1.06800
C1422       C  0.57046722  0.43264422  0.99473759     1.09700
C1423       C  0.93932576  0.42406282  0.01677272     1.07500
H1424       H  0.54238134  0.45821457  0.06020458     0.33100
O1425       O  0.52977143  0.46909786  0.04513207    -1.28800
H1426       H  0.96201145  0.45577133  0.94610518     0.32700
O1427       O  0.97358374  0.46750947  0.96164162    -1.30500
O1428       O  0.00229289  0.03629277  0.12446198    -0.86300
O1429       O  0.99397356  0.04214054  0.88784391    -0.87800
O1430       O  0.57764009  0.50065961  0.06382714    -0.86400
O1431       O  0.92745258  0.49139355  0.07290911    -0.86400
O1432       O  0.92307486  0.98897147  0.94467575    -0.86100
O1433       O  0.57297663  0.99847020  0.93404676    -0.85900
O1434       O  0.53688903  0.07117330  0.00498475    -0.86300
O1435       O  0.95249815  0.06251602  0.01074950    -0.85800
O1436       O  0.57102636  0.04176561  0.00137386    -0.86800
O1437       O  0.92357107  0.02791410  0.01284956    -0.86000
O1438       O  0.55017667  0.49617662  0.11917480    -0.86400
O1439       O  0.54117117  0.99758091  0.88265786    -0.86100
O1440       O  0.95018317  0.99500720  0.88949680    -0.85800
O1441       O  0.95859751  0.49222513  0.12510703    -0.86200
O1442       O  0.99864261  0.06753036  0.07296135    -0.86500
O1443       O  0.99332088  0.06997429  0.94368943    -0.87800
Zr1444     Zr  0.00352730  0.49310762  0.09211346     2.83100
Zr1445     Zr  0.99709657  0.99540405  0.91628854     2.83500
Zr1446     Zr  0.55162152  0.49771011  0.00030846     2.84100
Zr1447     Zr  0.94856595  0.49209484  0.00767226     2.83400
Zr1448     Zr  0.99664358  0.04518884  0.00686048     2.84200
O1449       O  0.97081201  0.01788342  0.96425994    -1.08400
O1450       O  0.52599455  0.02069155  0.04730238    -1.07900
C1451       C  0.00083031  0.06065324  0.11111123     1.06800
C1452       C  0.99267045  0.06576402  0.90462466     1.09400
C1453       C  0.57335751  0.49933188  0.10289054     1.07000
C1454       C  0.93424943  0.49204598  0.11116549     1.07300
C1455       C  0.92697130  0.99251711  0.90596783     1.06900
C1456       C  0.56556139  0.99827599  0.89587953     1.06400
C1457       C  0.56149198  0.06534172  0.00277169     1.06900
C1458       C  0.92925854  0.05278678  0.01405335     1.06400
H1459       H  0.53287398  0.03514312  0.94376088     0.33100
O1460       O  0.52308388  0.02266977  0.96025691    -1.29500
H1461       H  0.96271125  0.02627726  0.06736256     0.33100
O1462       O  0.97400809  0.01614398  0.04975029    -1.30900
N1463       N  0.75654211  0.28383396  0.04637794    -0.36400
N1464       N  0.79105969  0.23805058  0.05762319    -0.57000
N1465       N  0.74588789  0.20443780  0.04525815    -0.36400
N1466       N  0.71138750  0.25016198  0.03788848    -0.57000
C1467       C  0.77883063  0.29542120  0.06030138     0.27200
C1468       C  0.73709814  0.30190236  0.04971209     0.27200
C1469       C  0.76404858  0.18612438  0.05602352     0.27200
C1470       C  0.72220252  0.19251135  0.04652375     0.27200
C1471       C  0.80918588  0.25721163  0.05245683     0.35800
C1472       C  0.80352236  0.21480361  0.05146620     0.35800
C1473       C  0.70054765  0.27328952  0.02570616     0.35800
C1474       C  0.69485864  0.23101618  0.02460288     0.35800
C1475       C  0.77355837  0.32123464  0.07261618    -0.21700
C1476       C  0.74709010  0.32533164  0.06590146    -0.21700
C1477       C  0.75181567  0.16218768  0.06438497    -0.21700
C1478       C  0.72530316  0.16625524  0.05859275    -0.21700
C1479       C  0.83347426  0.24612366  0.04405796    -0.22800
C1480       C  0.82988840  0.21914445  0.04356429    -0.22800
C1481       C  0.67678231  0.26891139  0.00534649    -0.22800
C1482       C  0.67321576  0.24200204  0.00448527    -0.22800
C1483       C  0.80417146  0.28453224  0.05649748    -0.18100
C1484       C  0.71123436  0.29834022  0.03479641    -0.18100
C1485       C  0.69839695  0.20382574  0.03225960    -0.18100
C1486       C  0.79140050  0.18972198  0.05359982    -0.18100
H1487       H  0.78752935  0.33585192  0.08388605     0.14800
H1488       H  0.73656421  0.34365000  0.07116170     0.14800
H1489       H  0.76109654  0.14353216  0.07239722     0.14800
H1490       H  0.71014935  0.15129284  0.06130867     0.14800
H1491       H  0.85181169  0.25637290  0.03868075     0.13100
H1492       H  0.84488196  0.20445226  0.03766158     0.13100
H1493       H  0.66346036  0.28354759  0.99242524     0.13100
H1494       H  0.65655924  0.23171437  0.99076832     0.13100
H1495       H  0.75559168  0.26630804  0.02955753     0.26300
H1496       H  0.74969135  0.22257481  0.03156330     0.26300
C1497       C  0.00411453  0.24283254  0.25415070    -0.02300
C1498       C  0.75417853  0.50024105  0.25408942    -0.02300
C1499       C  0.00952245  0.24528764  0.75174593    -0.02300
C1500       C  0.74362141  0.50417358  0.75608956    -0.02300
C1501       C  0.59771449  0.50120029  0.12970614    -0.11800
C1502       C  0.60703224  0.47942021  0.15291139     0.03700
C1503       C  0.63278049  0.47939760  0.16977187    -0.12300
C1504       C  0.64953209  0.50158514  0.16635437     0.18600
C1505       C  0.63657956  0.02354501  0.14990574    -0.09400
C1506       C  0.61126911  0.02258335  0.13171751    -0.02300
H1507       H  0.63968344  0.46194205  0.18608184     0.05100
C1508       C  0.67647733  0.50147604  0.18684664     0.20500
H1509       H  0.60322528  0.04032698  0.11755520     0.10300
C1510       C  0.69790775  0.00621444  0.16229206    -0.15700
C1511       C  0.72360184  0.00625690  0.18014783     0.03200
C1512       C  0.72798672  0.50189155  0.22653605    -0.11000
C1513       C  0.70416500  0.49820229  0.24832628    -0.01000
C1514       C  0.67930080  0.49749637  0.22948263    -0.06200
H1515       H  0.69540771  0.01126326  0.13001153     0.06300
H1516       H  0.70489022  0.49472903  0.28105820     0.09600
Br1517     Br  0.65375219  0.05730349  0.15408826    -0.05900
Br1518     Br  0.58546424  0.44896472  0.16176463    -0.02800
Br1519     Br  0.75062789  0.01871155  0.14431174     0.00000
Br1520     Br  0.64976949  0.49184162  0.26471580    -0.04400
C1521       C  0.91094341  0.49409902  0.13873549    -0.11800
C1522       C  0.90452698  0.47496049  0.16869187     0.03700
C1523       C  0.87907407  0.47455382  0.18597244    -0.12300
C1524       C  0.85940049  0.49266015  0.17311727     0.18600
C1525       C  0.86893899  0.01302366  0.14725919    -0.09400
C1526       C  0.89458910  0.01247947  0.13200754    -0.02300
H1527       H  0.87453391  0.45986817  0.20913969     0.05100
C1528       C  0.83300980  0.49361562  0.19349901     0.20500
H1529       H  0.90099278  0.02869701  0.11264945     0.10300
C1530       C  0.82806272  0.01309083  0.21812018    -0.15700
C1531       C  0.80356600  0.01716168  0.23634108     0.03200
C1532       C  0.78206083  0.50005737  0.23188323    -0.11000
C1533       C  0.78715187  0.47976591  0.20239829    -0.01000
C1534       C  0.81189153  0.47664170  0.18337713    -0.06200
H1535       H  0.84444957  0.02581515  0.22680337     0.06300
H1536       H  0.77153214  0.46623252  0.19356287     0.09600
Br1537     Br  0.84708821  0.04274430  0.13255969    -0.05900
Br1538     Br  0.92920201  0.44798029  0.18440728    -0.02800
Br1539     Br  0.80658078  0.04535332  0.27659515     0.00000
Br1540     Br  0.81600623  0.44932288  0.14285179    -0.04400
C1541       C  0.00805541  0.39931347  0.13224381    -0.11800
C1542       C  0.53025031  0.38251318  0.13098097     0.03700
C1543       C  0.52957648  0.35698295  0.14835619    -0.12300
C1544       C  0.00682964  0.34724173  0.16704734     0.18600
C1545       C  0.98476661  0.36433075  0.16951103    -0.09400
C1546       C  0.98546473  0.38993599  0.15199732    -0.02300
H1547       H  0.54698706  0.34465685  0.14726651     0.05100
C1548       C  0.00716083  0.32036342  0.18713882     0.20500
H1549       H  0.96791326  0.40208135  0.15224024     0.10300
C1550       C  0.50393900  0.31909217  0.22961551    -0.15700
C1551       C  0.50309014  0.29493220  0.25070673     0.03200
C1552       C  0.00533507  0.26996132  0.22942943    -0.11000
C1553       C  0.00964419  0.27168551  0.18649180    -0.01000
C1554       C  0.01090417  0.29628627  0.16564474    -0.06200
H1555       H  0.50184995  0.33740924  0.24680605     0.06300
H1556       H  0.01237261  0.25392155  0.16855220     0.09600
Br1557     Br  0.95271876  0.35313979  0.19484861    -0.05900
Br1558     Br  0.56201134  0.39348089  0.10494766    -0.02800
Br1559     Br  0.49715998  0.29936718  0.30875407     0.00000
Br1560     Br  0.01763144  0.29575597  0.10766364    -0.04400
C1561       C  0.00249218  0.08335368  0.14048882    -0.11800
C1562       C  0.52468250  0.10015751  0.14037124     0.03700
C1563       C  0.52394559  0.12512896  0.15952555    -0.12300
C1564       C  0.50136153  0.13398630  0.17976082     0.18600
C1565       C  0.97961564  0.11654828  0.18205919    -0.09400
C1566       C  0.98016882  0.09166060  0.16204604    -0.02300
H1567       H  0.54104261  0.13791283  0.15812121     0.05100
C1568       C  0.50132519  0.16131389  0.19828099     0.20500
H1569       H  0.96281260  0.07918946  0.16214751     0.10300
C1570       C  0.98594701  0.18168905  0.18091838    -0.15700
C1571       C  0.98657413  0.20799834  0.19642010     0.03200
C1572       C  0.00362839  0.21509256  0.23036031    -0.11000
C1573       C  0.51839858  0.19351647  0.24758385    -0.01000
C1574       C  0.51767573  0.16764764  0.23193408    -0.06200
H1575       H  0.97326151  0.17704781  0.15474445     0.06300
H1576       H  0.53077895  0.19611231  0.27458635     0.09600
Br1577     Br  0.94901561  0.12567599  0.21275946    -0.05900
Br1578     Br  0.55647520  0.08983288  0.11369596    -0.02800
Br1579     Br  0.96289927  0.23170985  0.16826872     0.00000
Br1580     Br  0.53901288  0.14125075  0.25900908    -0.04400
C1581       C  0.59278949  0.41415556  0.99408877    -0.11800
C1582       C  0.59090938  0.38832533  0.97739347     0.03700
C1583       C  0.61234667  0.37114306  0.98120196    -0.12300
C1584       C  0.63553089  0.37939461  0.00130945     0.18600
C1585       C  0.63786584  0.40538622  0.01620982    -0.09400
C1586       C  0.61663418  0.42256412  0.01242400    -0.02300
H1587       H  0.61068343  0.35103015  0.96961634     0.05100
C1588       C  0.65592342  0.35985685  0.01087635     0.20500
H1589       H  0.61851029  0.44228490  0.02548374     0.10300
C1590       C  0.67598322  0.35519592  0.98273161    -0.15700
C1591       C  0.69524492  0.33619628  0.99131568     0.03200
C1592       C  0.69422586  0.32162713  0.02823489    -0.11000
C1593       C  0.67453829  0.32687350  0.05682364    -0.01000
C1594       C  0.65544453  0.34598042  0.04840900    -0.06200
H1595       H  0.67644321  0.36610823  0.95399200     0.06300
H1596       H  0.67360680  0.31549556  0.08508430     0.09600
Br1597     Br  0.66908884  0.41765429  0.04429225    -0.05900
Br1598     Br  0.56007642  0.37544359  0.94870766    -0.02800
Br1599     Br  0.72184956  0.32982866  0.95124202     0.00000
Br1600     Br  0.62860193  0.35212342  0.08829529    -0.04400
C1601       C  0.92098801  0.40230513  0.02645011    -0.11800
C1602       C  0.89696132  0.40671695  0.04695027     0.03700
C1603       C  0.88056477  0.38535650  0.05530073    -0.12300
C1604       C  0.88755397  0.35966184  0.04385862     0.18600
C1605       C  0.91163020  0.35486052  0.02490281    -0.09400
C1606       C  0.92821204  0.37610731  0.01641196    -0.02300
H1607       H  0.86185248  0.38885331  0.06991069     0.05100
C1608       C  0.86774904  0.33891865  0.04702438     0.20500
H1609       H  0.94658756  0.37208900  0.00116376     0.10300
C1610       C  0.84963782  0.33625739  0.01442195    -0.15700
C1611       C  0.82897133  0.31838685  0.01709078     0.03200
C1612       C  0.82628200  0.30308544  0.05301246    -0.11000
C1613       C  0.84463272  0.30546271  0.08552622    -0.01000
C1614       C  0.86546026  0.32336020  0.08266570    -0.06200
H1615       H  0.85144424  0.34840555  0.98705569     0.06300
H1616       H  0.84258976  0.29354988  0.11307250     0.09600
Br1617     Br  0.92209870  0.31974954  0.00919413    -0.05900
Br1618     Br  0.88482697  0.44078226  0.06532964    -0.02800
Br1619     Br  0.80497164  0.31553000  0.97095254     0.00000
Br1620     Br  0.89015457  0.32623437  0.12773865    -0.04400
C1621       C  0.90751464  0.07141756  0.02065432    -0.11800
C1622       C  0.91170342  0.09675946  0.03842107     0.03700
C1623       C  0.89041312  0.11341670  0.04458029    -0.12300
C1624       C  0.86475861  0.10503524  0.03549728     0.18600
C1625       C  0.86036427  0.07977682  0.01829811    -0.09400
C1626       C  0.88170828  0.06326433  0.01075865    -0.02300
H1627       H  0.89385968  0.13304307  0.05725335     0.05100
C1628       C  0.84328993  0.12385959  0.04226002     0.20500
H1629       H  0.87801477  0.04387481  0.99742475     0.10300
C1630       C  0.82837992  0.13237835  0.00813934    -0.15700
C1631       C  0.81040854  0.15294873  0.01202807     0.03200
C1632       C  0.80800696  0.16595672  0.05014191    -0.11000
C1633       C  0.82222554  0.15697214  0.08469379    -0.01000
C1634       C  0.83961508  0.13574212  0.08113109    -0.06200
H1635       H  0.83131004  0.12354195  0.97809207     0.06300
H1636       H  0.81999002  0.16670368  0.11422888     0.09600
Br1637     Br  0.82571077  0.06656737  0.00592697    -0.05900
Br1638     Br  0.94517146  0.10973763  0.05841408    -0.02800
Br1639     Br  0.79023534  0.16315230  0.96417150     0.00000
Br1640     Br  0.85793609  0.12374028  0.12992696    -0.04400
C1641       C  0.58054158  0.08706539  0.00225864    -0.11800
C1642       C  0.57744796  0.10906565  0.97582533     0.03700
C1643       C  0.59646656  0.12901202  0.97603101    -0.12300
C1644       C  0.61847255  0.12712295  0.00218189     0.18600
C1645       C  0.62182687  0.10509024  0.02808485    -0.09400
C1646       C  0.60295700  0.08512845  0.02783971    -0.02300
H1647       H  0.59405430  0.14606603  0.95602192     0.05100
C1648       C  0.63702997  0.14906145  0.00490472     0.20500
H1649       H  0.60559445  0.06822417  0.04810009     0.10300
C1650       C  0.63369044  0.16761321  0.03651056    -0.15700
C1651       C  0.65345393  0.18579974  0.04586612     0.03200
C1652       C  0.67646143  0.18587604  0.02237708    -0.11000
C1653       C  0.67918024  0.16818322  0.98938404    -0.01000
C1654       C  0.65979644  0.14940889  0.98097862    -0.06200
H1655       H  0.61633110  0.16687256  0.05543827     0.06300
H1656       H  0.69694210  0.16830229  0.97135207     0.09600
Br1657     Br  0.65175649  0.10197334  0.06458402    -0.05900
Br1658     Br  0.54866384  0.11219661  0.93732003    -0.02800
Br1659     Br  0.64897952  0.20860281  0.09267364     0.00000
Br1660     Br  0.66627769  0.12331707  0.93929618    -0.04400
C1661       C  0.77232377  0.00180927  0.78492714    -0.11800
C1662       C  0.77931096  0.47813418  0.80285496     0.03700
C1663       C  0.80511804  0.47604072  0.81983479    -0.12300
C1664       C  0.82492206  0.99630978  0.81977807     0.18600
C1665       C  0.81706821  0.01977723  0.80034775    -0.09400
C1666       C  0.79184328  0.02219299  0.78308278    -0.02300
H1667       H  0.81106490  0.45777232  0.83483698     0.05100
C1668       C  0.85120428  0.99462332  0.84110453     0.20500
H1669       H  0.78881085  0.04042693  0.76666247     0.10300
C1670       C  0.87332973  0.98417460  0.82108015    -0.15700
C1671       C  0.89847728  0.98397628  0.84048372     0.03200
C1672       C  0.90190500  0.99446341  0.88068060    -0.11000
C1673       C  0.87727729  0.50522238  0.90024324    -0.01000
C1674       C  0.85248332  0.50486524  0.88056507    -0.06200
H1675       H  0.87103128  0.97611684  0.79026603     0.06300
H1676       H  0.87841990  0.51271838  0.93153226     0.09600
Br1677     Br  0.84057647  0.04944110  0.79571945    -0.05900
Br1678     Br  0.75830079  0.44659547  0.80810996    -0.02800
Br1679     Br  0.92694501  0.96782521  0.81175732     0.00000
Br1680     Br  0.82266480  0.51721621  0.91067039    -0.04400
C1681       C  0.58775138  0.99908424  0.86638434    -0.11800
C1682       C  0.59776663  0.02350033  0.85230726     0.03700
C1683       C  0.62289768  0.02488440  0.83476386    -0.12300
C1684       C  0.63882284  0.00219853  0.83121456     0.18600
C1685       C  0.62435042  0.48291980  0.83788317    -0.09400
C1686       C  0.59922074  0.48194144  0.85514539    -0.02300
H1687       H  0.63043608  0.04397191  0.82517403     0.05100
C1688       C  0.66615909  0.00459425  0.81465411     0.20500
H1689       H  0.59082891  0.46281726  0.86269546     0.10300
C1690       C  0.68591884  0.50335462  0.83837659    -0.15700
C1691       C  0.71183339  0.50245315  0.82305120     0.03200
C1692       C  0.71876055  0.00484522  0.78226937    -0.11000
C1693       C  0.69612984  0.01195008  0.75813012    -0.01000
C1694       C  0.67058412  0.01200154  0.77367394    -0.06200
H1695       H  0.68281871  0.50018902  0.87098066     0.06300
H1696       H  0.69807989  0.01602852  0.72555890     0.09600
Br1697     Br  0.64161548  0.44987244  0.82801517    -0.05900
Br1698     Br  0.57870499  0.05588409  0.85991947    -0.02800
Br1699     Br  0.73823971  0.49997174  0.86585623     0.00000
Br1700     Br  0.64219934  0.01982074  0.73598144    -0.04400
C1701       C  0.00995253  0.21989516  0.78088306    -0.11800
C1702       C  0.53112242  0.20133823  0.78752218     0.03700
C1703       C  0.52659547  0.17668046  0.80687191    -0.12300
C1704       C  0.00170277  0.16899062  0.82056360     0.18600
C1705       C  0.98166671  0.18851664  0.81913735    -0.09400
C1706       C  0.98645312  0.21382233  0.80201124    -0.02300
H1707       H  0.54298373  0.16325386  0.81158395     0.05100
C1708       C  0.99768107  0.14154701  0.83894015     0.20500
H1709       H  0.97017001  0.22762830  0.80022495     0.10300
C1710       C  0.48515035  0.13933973  0.87696194    -0.15700
C1711       C  0.48105010  0.11478015  0.89605590     0.03200
C1712       C  0.99134835  0.09091431  0.87913377    -0.11000
C1713       C  0.00366387  0.09283470  0.84066620    -0.01000
C1714       C  0.00660031  0.11759787  0.82044455    -0.06200
H1715       H  0.47854180  0.15708104  0.89250646     0.06300
H1716       H  0.01175347  0.07515774  0.82673868     0.09600
Br1717     Br  0.94567531  0.18021339  0.83110874    -0.05900
Br1718     Br  0.56783204  0.20747335  0.77798033    -0.02800
Br1719     Br  0.46038071  0.11603549  0.94518966     0.00000
Br1720     Br  0.02258475  0.11712913  0.76726340    -0.04400
C1721       C  0.00344619  0.27044176  0.78094768    -0.11800
C1722       C  0.52064142  0.27984736  0.81336748     0.03700
C1723       C  0.51834986  0.30598699  0.82904145    -0.12300
C1724       C  0.99826160  0.32316961  0.81556920     0.18600
C1725       C  0.97862756  0.31249894  0.78955743    -0.09400
C1726       C  0.98045341  0.28624005  0.77517634    -0.02300
H1727       H  0.53243745  0.31298095  0.85199094     0.05100
C1728       C  0.99617213  0.35075301  0.83321670     0.20500
H1729       H  0.96340437  0.27873822  0.75888958     0.10300
C1730       C  0.00967029  0.37244603  0.81579854    -0.15700
C1731       C  0.00911129  0.39805691  0.83410958     0.03200
C1732       C  0.99473652  0.40242489  0.87050206    -0.11000
C1733       C  0.48033127  0.38082529  0.88627471    -0.01000
C1734       C  0.48113538  0.35547664  0.86846521    -0.06200
H1735       H  0.02128280  0.36929235  0.78852533     0.06300
H1736       H  0.46910304  0.38336800  0.91412888     0.09600
Br1737     Br  0.94895298  0.33323993  0.77184953    -0.05900
Br1738     Br  0.54852240  0.25937162  0.83742151    -0.02800
Br1739     Br  0.02988142  0.42562856  0.81026307     0.00000
Br1740     Br  0.46246409  0.32736928  0.89509553    -0.04400
C1741       C  0.85518116  0.25011717  0.62443755    -0.11800
C1742       C  0.86250099  0.26761146  0.65689347     0.03700
C1743       C  0.88885201  0.26804869  0.67251316    -0.12300
C1744       C  0.90849518  0.25119548  0.65653666     0.18600
C1745       C  0.90084961  0.23348695  0.62478643    -0.09400
C1746       C  0.87490513  0.23308500  0.60947846    -0.02300
H1747       H  0.89392059  0.28136522  0.69763477     0.05100
C1748       C  0.93566652  0.24923525  0.67631335     0.20500
H1749       H  0.87022237  0.21938515  0.58464563     0.10300
C1750       C  0.94265767  0.22539274  0.69544516    -0.15700
C1751       C  0.96755709  0.22119971  0.71366763     0.03200
C1752       C  0.98621280  0.24267772  0.71785805    -0.11000
C1753       C  0.98059926  0.26493036  0.69220872    -0.01000
C1754       C  0.95543442  0.26890126  0.67362573    -0.06200
H1755       H  0.92861481  0.20919939  0.69483440     0.06300
H1756       H  0.99462793  0.28109234  0.69128790     0.09600
Br1757     Br  0.92524042  0.20937788  0.60005722    -0.05900
Br1758     Br  0.83762671  0.29164644  0.68014987    -0.02800
Br1759     Br  0.97404607  0.18384779  0.72206158     0.00000
Br1760     Br  0.94865003  0.30233313  0.64764371    -0.04400
C1761       C  0.53646591  0.24990392  0.72742489    -0.11800
C1762       C  0.54656518  0.23206130  0.69701338     0.03700
C1763       C  0.57219508  0.23503937  0.68105250    -0.12300
C1764       C  0.58905754  0.25578048  0.69322477     0.18600
C1765       C  0.57837834  0.27522750  0.71939972    -0.09400
C1766       C  0.55251081  0.27279024  0.73427780    -0.02300
H1767       H  0.57920095  0.22063482  0.65898655     0.05100
C1768       C  0.61674392  0.25746272  0.67610017     0.20500
H1769       H  0.54558891  0.28949903  0.75151213     0.10300
C1770       C  0.62420035  0.27952154  0.65232063    -0.15700
C1771       C  0.64873521  0.28062240  0.63257716     0.03200
C1772       C  0.66706247  0.25958186  0.63629710    -0.11000
C1773       C  0.66013145  0.23791253  0.66117245    -0.01000
C1774       C  0.63542134  0.23666926  0.68069493    -0.06200
H1775       H  0.61041789  0.29564558  0.64765904     0.06300
H1776       H  0.67341097  0.22118281  0.66372606     0.09600
Br1777     Br  0.59863248  0.30517749  0.73813006    -0.05900
Br1778     Br  0.52801254  0.20210871  0.67557419    -0.02800
Br1779     Br  0.65607765  0.31111946  0.59922448     0.00000
Br1780     Br  0.62813503  0.20566518  0.71269875    -0.04400
C1781       C  0.74559242  0.03242913  0.73578827    -0.11800
C1782       C  0.74317342  0.05690981  0.75847557     0.03700
C1783       C  0.74417454  0.08165867  0.73880260    -0.12300
C1784       C  0.74627216  0.08396324  0.69612759     0.18600
C1785       C  0.74701946  0.06019824  0.67282972    -0.09400
C1786       C  0.74673246  0.03506524  0.69236641    -0.02300
H1787       H  0.74379623  0.09952119  0.75740635     0.05100
C1788       C  0.74912086  0.11123239  0.67725281     0.20500
H1789       H  0.74709903  0.01766535  0.67295497     0.10300
C1790       C  0.77145001  0.11697636  0.65389408    -0.15700
C1791       C  0.77474858  0.14176945  0.63483945     0.03200
C1792       C  0.75592459  0.16216404  0.63951630    -0.11000
C1793       C  0.73424971  0.15707147  0.66469951    -0.01000
C1794       C  0.73069938  0.13199402  0.68335639    -0.06200
H1795       H  0.78627342  0.10183345  0.64971412     0.06300
H1796       H  0.71912126  0.17203653  0.66770994     0.09600
Br1797     Br  0.74703577  0.06096984  0.61372985    -0.05900
Br1798     Br  0.74050570  0.05955230  0.81736449    -0.02800
Br1799     Br  0.80504584  0.14648065  0.60101864     0.00000
Br1800     Br  0.69900356  0.12655126  0.71355329    -0.04400
C1801       C  0.76470353  0.35056180  0.62399496    -0.11800
C1802       C  0.77346401  0.37497733  0.60648416     0.03700
C1803       C  0.76998360  0.39926654  0.62707820    -0.12300
C1804       C  0.75946236  0.40064039  0.66668870     0.18600
C1805       C  0.75274540  0.37622297  0.68582943    -0.09400
C1806       C  0.75497470  0.35176401  0.66441088    -0.02300
H1807       H  0.77557564  0.41742879  0.61169252     0.05100
C1808       C  0.75471369  0.42766045  0.68619028     0.20500
H1809       H  0.74867702  0.33368217  0.67931752     0.10300
C1810       C  0.72989583  0.43378171  0.70124341    -0.15700
C1811       C  0.72482763  0.45726387  0.72350333     0.03200
C1812       C  0.74417879  0.47845839  0.72655458    -0.11000
C1813       C  0.76828857  0.47275979  0.70658329    -0.01000
C1814       C  0.77412043  0.44762778  0.68951243    -0.06200
H1815       H  0.71459743  0.41887466  0.69834110     0.06300
H1816       H  0.78406417  0.48717685  0.70816792     0.09600
Br1817     Br  0.74161520  0.37489292  0.74203729    -0.05900
Br1818     Br  0.79185923  0.37737981  0.55514328    -0.02800
Br1819     Br  0.69290427  0.45260008  0.75364711     0.00000
Br1820     Br  0.81015064  0.44036400  0.67723148    -0.04400
C1821       C  0.83461286  0.15700885  0.48585730    -0.11800
C1822       C  0.82633702  0.13126766  0.47333043     0.03700
C1823       C  0.84512328  0.11215368  0.46381190    -0.12300
C1824       C  0.87190540  0.11830326  0.46532737     0.18600
C1825       C  0.88022697  0.14376985  0.47703768    -0.09400
C1826       C  0.86170338  0.16270496  0.48775410    -0.02300
H1827       H  0.83882586  0.09252911  0.45415352     0.05100
C1828       C  0.89099456  0.09802211  0.45391093     0.20500
H1829       H  0.86868315  0.18218576  0.49688313     0.10300
C1830       C  0.90250644  0.09927164  0.41499468    -0.15700
C1831       C  0.92206774  0.08129277  0.40430242     0.03200
C1832       C  0.92995540  0.06171516  0.43269189    -0.11000
C1833       C  0.91788094  0.06001254  0.47115120    -0.01000
C1834       C  0.89849905  0.07811590  0.48198505    -0.06200
H1835       H  0.89668110  0.11464289  0.39338760     0.06300
H1836       H  0.92420894  0.04511128  0.49321526     0.09600
Br1837     Br  0.91665056  0.15376822  0.47827893    -0.05900
Br1838     Br  0.79023880  0.12074160  0.46516524    -0.02800
Br1839     Br  0.93814870  0.08457972  0.35145678     0.00000
Br1840     Br  0.88388118  0.07592845  0.53607041    -0.04400
C1841       C  0.66343381  0.17008054  0.49444458    -0.11800
C1842       C  0.63667410  0.17789519  0.49048077     0.03700
C1843       C  0.61773017  0.15933336  0.47808366    -0.12300
C1844       C  0.62472758  0.13311740  0.46962503     0.18600
C1845       C  0.65098527  0.12506997  0.47418308    -0.09400
C1846       C  0.67002493  0.14340100  0.48655495    -0.02300
H1847       H  0.59733496  0.16534370  0.47511415     0.05100
C1848       C  0.60414486  0.11402891  0.45799508     0.20500
H1849       H  0.69021851  0.13669781  0.48890521     0.10300
C1850       C  0.59606799  0.11178959  0.41658233    -0.15700
C1851       C  0.57710629  0.09302858  0.40484926     0.03200
C1852       C  0.56626811  0.07632917  0.43480211    -0.11000
C1853       C  0.57405183  0.07895096  0.47626228    -0.01000
C1854       C  0.59281292  0.09775866  0.48802689    -0.06200
H1855       H  0.60472544  0.12442347  0.39343919     0.06300
H1856       H  0.56563170  0.06614321  0.49939936     0.09600
Br1857     Br  0.66176740  0.08929021  0.46337970    -0.05900
Br1858     Br  0.62385208  0.21312117  0.50121537    -0.02800
Br1859     Br  0.56674087  0.09035315  0.34791546     0.00000
Br1860     Br  0.60267417  0.10050790  0.54524515    -0.04400
C1861       C  0.67612471  0.34460542  0.49259721    -0.11800
C1862       C  0.68307802  0.37170549  0.49694326     0.03700
C1863       C  0.66461562  0.39128287  0.48718432    -0.12300
C1864       C  0.63895922  0.38451663  0.47483541     0.18600
C1865       C  0.63156823  0.35763874  0.47290930    -0.09400
C1866       C  0.65010496  0.33806432  0.48131194    -0.02300
H1867       H  0.67037835  0.41195567  0.48893523     0.05100
C1868       C  0.62040795  0.40553766  0.46237793     0.20500
H1869       H  0.64407013  0.31754275  0.47811031     0.10300
C1870       C  0.60943806  0.40481847  0.42237162    -0.15700
C1871       C  0.58996246  0.42279312  0.41046881     0.03200
C1872       C  0.58184141  0.44225387  0.43845788    -0.11000
C1873       C  0.59383563  0.44404025  0.47754223    -0.01000
C1874       C  0.61297974  0.42580390  0.48980247    -0.06200
H1875       H  0.61551155  0.38968568  0.40076764     0.06300
H1876       H  0.58749874  0.45908705  0.49910564     0.06800
Br1877     Br  0.59635407  0.34633925  0.45949848    -0.05900
Br1878     Br  0.71679358  0.38386989  0.51695500    -0.02800
Br1879     Br  0.57441840  0.41963537  0.35645556     0.00000
Br1880     Br  0.62680928  0.42853998  0.54507897    -0.04400
C1881       C  0.94539553  0.42849302  0.43823136    -0.11800
C1882       C  0.94341905  0.40700608  0.41048733     0.03700
C1883       C  0.92534011  0.38665089  0.41774920    -0.12300
C1884       C  0.90897335  0.38770053  0.45210608     0.18600
C1885       C  0.91076740  0.40927552  0.47947739    -0.09400
C1886       C  0.92911399  0.42928388  0.47271182    -0.02300
H1887       H  0.92366915  0.37026176  0.39622355     0.05100
C1888       C  0.88900238  0.36703946  0.45819281     0.20500
H1889       H  0.93042340  0.44580404  0.49405180     0.10300
C1890       C  0.89408076  0.34641798  0.48613241    -0.15700
C1891       C  0.87441397  0.32815775  0.49589865     0.03200
C1892       C  0.84911695  0.33071144  0.47770469    -0.11000
C1893       C  0.84433074  0.35121283  0.44924410    -0.01000
C1894       C  0.86406941  0.36922997  0.43933163    -0.06200
H1895       H  0.91321032  0.34495548  0.50113430     0.06300
H1896       H  0.82516828  0.35317299  0.43446725     0.09600
Br1897     Br  0.88766772  0.41276815  0.52538369    -0.05900
Br1898     Br  0.96418547  0.40526400  0.36166484    -0.02800
Br1899     Br  0.88283720  0.30142997  0.53621836     0.00000
Br1900     Br  0.85597037  0.39717108  0.40107744    -0.04400
C1901       C  0.66090468  0.24759207  0.37320032    -0.11800
C1902       C  0.65340500  0.26577222  0.34223223     0.03700
C1903       C  0.62773917  0.26496287  0.32532906    -0.12300
C1904       C  0.60937063  0.24572385  0.33788128     0.18600
C1905       C  0.61793778  0.22591094  0.36564956    -0.09400
C1906       C  0.64310207  0.22743403  0.38377353    -0.02300
H1907       H  0.62201206  0.27954837  0.30238897     0.05100
C1908       C  0.58238672  0.24542224  0.31867462     0.20500
H1909       H  0.64882852  0.21275326  0.40659169     0.10300
C1910       C  0.58026215  0.24213975  0.27620261    -0.15700
C1911       C  0.55588620  0.24164615  0.25573103     0.03200
C1912       C  0.53160465  0.24448500  0.27779367    -0.11000
C1913       C  0.53427671  0.24875563  0.32074925    -0.01000
C1914       C  0.55905989  0.24903734  0.34105072    -0.06200
H1915       H  0.59802366  0.23941691  0.25862540     0.06300
H1916       H  0.51712868  0.25207305  0.33915025     0.09600
Br1917     Br  0.59684719  0.19543377  0.37796016    -0.05900
Br1918     Br  0.67710540  0.29225792  0.32265741    -0.02800
Br1919     Br  0.55919390  0.23447114  0.19770517     0.00000
Br1920     Br  0.55996080  0.25541721  0.39932315    -0.04400
C1921       C  0.84442740  0.24117321  0.36425752    -0.11800
C1922       C  0.85698323  0.26468978  0.35186782     0.03700
C1923       C  0.88265978  0.26406208  0.33612719    -0.12300
C1924       C  0.89650859  0.24004107  0.33061976     0.18600
C1925       C  0.88352715  0.21629297  0.34233866    -0.09400
C1926       C  0.85809835  0.21713668  0.35932744    -0.02300
H1927       H  0.89207610  0.28270602  0.32882892     0.05100
C1928       C  0.92400657  0.24060647  0.31252533     0.20500
H1929       H  0.84936079  0.19891823  0.37029554     0.10300
C1930       C  0.94536640  0.22713155  0.33126096    -0.15700
C1931       C  0.97093425  0.22681347  0.31410308     0.03200
C1932       C  0.97708289  0.24276913  0.27890000    -0.11000
C1933       C  0.95504229  0.25635109  0.26110211    -0.01000
C1934       C  0.92938998  0.25489734  0.27635987    -0.06200
H1935       H  0.94205442  0.21607792  0.35929053     0.06300
H1936       H  0.95706145  0.26781835  0.23328843     0.09600
Br1937     Br  0.89923998  0.18191229  0.33642266    -0.05900
Br1938     Br  0.84028185  0.29848331  0.35882718    -0.02800
Br1939     Br  0.99474607  0.20240481  0.34053135     0.00000
Br1940     Br  0.90204998  0.27111483  0.24336144    -0.04400
C1941       C  0.75323363  0.33998702  0.36323314    -0.11800
C1942       C  0.73016309  0.35551674  0.36170280     0.03700
C1943       C  0.73012389  0.38045088  0.34248434    -0.12300
C1944       C  0.75314302  0.39095583  0.32553017     0.18600
C1945       C  0.77623725  0.37538474  0.32679194    -0.09400
C1946       C  0.77610940  0.35016251  0.34537261    -0.02300
H1947       H  0.71231425  0.39223048  0.34244163     0.05100
C1948       C  0.75296560  0.41853911  0.30846233     0.20500
H1949       H  0.79431052  0.33912424  0.34790372     0.10300
C1950       C  0.76871272  0.43833733  0.32666126    -0.15700
C1951       C  0.76973604  0.46436580  0.31075525     0.03200
C1952       C  0.75341256  0.47213498  0.27657410    -0.11000
C1953       C  0.73880220  0.45095202  0.25764529    -0.01000
C1954       C  0.73779193  0.42524600  0.27365153    -0.06200
H1955       H  0.78076960  0.43332463  0.35336306     0.06300
H1956       H  0.72831799  0.45363444  0.22875383     0.09600
Br1957     Br  0.80866877  0.38809793  0.30468885    -0.05900
Br1958     Br  0.69886874  0.34459537  0.38915086    -0.02800
Br1959     Br  0.79442379  0.48701853  0.33847049     0.00000
Br1960     Br  0.71618381  0.39969481  0.24495545    -0.04400
C1961       C  0.74956471  0.02568551  0.27522096    -0.11800
C1962       C  0.74253091  0.02821727  0.31761637     0.03700
C1963       C  0.74091505  0.05361991  0.33618711    -0.12300
C1964       C  0.74372808  0.07719244  0.31340763     0.18600
C1965       C  0.74687851  0.07484206  0.27059053    -0.09400
C1966       C  0.74930524  0.04974424  0.25222264    -0.02300
H1967       H  0.73684212  0.05499879  0.36879505     0.05100
C1968       C  0.74361446  0.10392270  0.33448056     0.20500
H1969       H  0.75258338  0.04915872  0.21941869     0.10300
C1970       C  0.76650910  0.11970363  0.33454083    -0.15700
C1971       C  0.76761850  0.14433490  0.35516567     0.03200
C1972       C  0.74542795  0.15427037  0.37557802    -0.11000
C1973       C  0.72251574  0.13852488  0.37570174    -0.01000
C1974       C  0.72145293  0.11372405  0.35543305    -0.06200
H1975       H  0.78396516  0.11239114  0.31957662     0.06300
H1976       H  0.70549686  0.14530844  0.39240684     0.09600
Br1977     Br  0.74814898  0.10536921  0.23537959    -0.05900
Br1978     Br  0.73048496  0.99962209  0.35165896    -0.02800
Br1979     Br  0.80075075  0.16241479  0.35885342     0.00000
Br1980     Br  0.68920888  0.09402866  0.35701953    -0.04400
O1981       O  0.75282842  0.70431345  0.38658181    -0.86300
O1982       O  0.75873668  0.70975661  0.62261543    -0.86500
O1983       O  0.79568015  0.67651853  0.50240862    -0.88100
O1984       O  0.71230178  0.68075466  0.50887861    -0.86900
O1985       O  0.68267377  0.71454851  0.50997628    -0.86500
O1986       O  0.82936867  0.70596772  0.49667093    -0.87900
O1987       O  0.75560555  0.67862447  0.57067584    -0.86300
O1988       O  0.75180565  0.67559186  0.44159959    -0.85900
Zr1989     Zr  0.75513352  0.70100527  0.50539061     2.84300
O1990       O  0.73231019  0.72982745  0.54862447    -1.07900
O1991       O  0.78098669  0.72388460  0.45863029    -1.08600
C1992       C  0.75174863  0.68061489  0.40260885     1.06800
C1993       C  0.75686407  0.68534269  0.60886396     1.06800
C1994       C  0.82003783  0.68217075  0.49779375     1.09700
C1995       C  0.68865004  0.68974840  0.50969967     1.07500
H1996       H  0.79539079  0.71478143  0.56241529     0.33100
O1997       O  0.78419107  0.72624287  0.54632585    -1.28800
H1998       H  0.71648150  0.71592516  0.44792444     0.32700
O1999       O  0.72870938  0.72727043  0.46275044    -1.30500
O2000       O  0.76432819  0.80255411  0.61808616    -0.86300
O2001       O  0.75654780  0.79463151  0.38043856    -0.87800
O2002       O  0.83428369  0.75244640  0.56282792    -0.86400
O2003       O  0.68511470  0.75842212  0.57155247    -0.86400
O2004       O  0.67993646  0.75313738  0.44361186    -0.86100
O2005       O  0.83008422  0.74956266  0.43214308    -0.85900
O2006       O  0.80385908  0.82455382  0.49670607    -0.86300
O2007       O  0.72016326  0.83067962  0.49672231    -0.85800
O2008       O  0.83365443  0.79070700  0.49558561    -0.86800
O2009       O  0.68665971  0.80077607  0.50064553    -0.86000
O2010       O  0.80781758  0.75580658  0.61922416    -0.86400
O2011       O  0.79820890  0.74878825  0.38091508    -0.86100
O2012       O  0.70741016  0.74992570  0.38805496    -0.85800
O2013       O  0.71637916  0.75708791  0.62358232    -0.86200
O2014       O  0.76332379  0.83026046  0.56209251    -0.86500
O2015       O  0.76091482  0.82596057  0.43184307    -0.87800
Zr2016     Zr  0.76107967  0.75549401  0.59056716     2.83100
Zr2017     Zr  0.75435884  0.75051281  0.41501215     2.83500
Zr2018     Zr  0.80942580  0.74976139  0.49905883     2.84100
Zr2019     Zr  0.70611795  0.75644171  0.50576760     2.83400
Zr2020     Zr  0.76045581  0.80511297  0.49900728     2.84200
O2021       O  0.73134570  0.77988876  0.45858951    -1.08400
O2022       O  0.78660701  0.77864975  0.54205199    -1.07900
C2023       C  0.76503323  0.82615678  0.60113775     1.06800
C2024       C  0.75898767  0.81893577  0.39370578     1.09400
C2025       C  0.83092414  0.75434988  0.60199647     1.07000
C2026       C  0.69204556  0.75828869  0.60984485     1.07300
C2027       C  0.68414565  0.75052155  0.40484994     1.06900
C2028       C  0.82260711  0.74934937  0.39396137     1.06400
C2029       C  0.82743741  0.81538976  0.49501473     1.06900
C2030       C  0.69558502  0.82470519  0.49740392     1.06400
H2031       H  0.79446608  0.78664959  0.43864627     0.33100
O2032       O  0.78333714  0.77636729  0.45616285    -1.29500
H2033       H  0.72460611  0.79459131  0.56217850     0.33100
O2034       O  0.73463755  0.78226121  0.54625483    -1.30900
N2035       N  0.00967051  0.96197469  0.42255971    -0.36400
N2036       N  0.54748970  0.50636417  0.42837302    -0.57000
N2037       N  0.00439189  0.54341903  0.43184029    -0.36400
N2038       N  0.96786739  0.49885373  0.43141326    -0.57000
C2039       C  0.53266548  0.95034605  0.43344209     0.27200
C2040       C  0.99026135  0.94537791  0.43403191     0.27200
C2041       C  0.52458452  0.55957657  0.44294046     0.27200
C2042       C  0.98192295  0.55589437  0.44209251     0.27200
C2043       C  0.56253091  0.98747310  0.41570214     0.35800
C2044       C  0.56129019  0.52913086  0.42586026     0.35800
C2045       C  0.95222351  0.97475727  0.41862451     0.35800
C2046       C  0.95047205  0.51892642  0.42776460     0.35800
C2047       C  0.52779783  0.92574264  0.45091786    -0.21700
C2048       C  0.00101555  0.92260213  0.45127962    -0.21700
C2049       C  0.51474568  0.58302699  0.45892939    -0.21700
C2050       C  0.98780881  0.58075345  0.45820492    -0.21700
C2051       C  0.58692147  0.99798618  0.40651359    -0.22800
C2052       C  0.58721936  0.52378306  0.41617381    -0.22800
C2053       C  0.92580584  0.97944442  0.41026373    -0.22800
C2054       C  0.92548372  0.50908711  0.41942742    -0.22800
C2055       C  0.55795945  0.96091352  0.42674944    -0.18100
C2056       C  0.96314295  0.94980960  0.42795229    -0.18100
C2057       C  0.95621627  0.54567668  0.43663724    -0.18100
C2058       C  0.55159886  0.55410520  0.43780546    -0.18100
H2059       H  0.54203310  0.91142726  0.46216015     0.14800
H2060       H  0.99068750  0.90544087  0.46285894     0.14800
H2061       H  0.52577059  0.60010191  0.46978152     0.14800
H2062       H  0.97414882  0.59567178  0.46869985     0.14800
H2063       H  0.60524853  0.98738858  0.40299915     0.13100
H2064       H  0.60325814  0.53775945  0.41349452     0.13100
H2065       H  0.91020769  0.96494420  0.40684298     0.13100
H2066       H  0.90739067  0.52021786  0.41599465     0.13100
H2067       H  0.00739974  0.97901586  0.40485922     0.26300
H2068       H  0.00563803  0.52582676  0.41531877     0.26300
O2069       O  0.99797868  0.95039532  0.88292883    -0.86300
O2070       O  0.00567908  0.94537279  0.11952764    -0.86500
O2071       O  0.55010865  0.92342176  0.99919696    -0.88100
O2072       O  0.96689657  0.91392045  0.00723202    -0.86900
O2073       O  0.93225999  0.94262918  0.01128614    -0.86500
O2074       O  0.57880543  0.95829373  0.00010525    -0.87900
O2075       O  0.00899074  0.91684408  0.06440431    -0.86300
O2076       O  0.00352989  0.91965399  0.93481748    -0.85900
Zr2077     Zr  0.00566596  0.94128656  0.00080890     2.84300
O2078       O  0.97862992  0.96336943  0.04717944    -1.07900
O2079       O  0.52731103  0.97054196  0.95721590    -1.08600
C2080       C  0.00023240  0.92614206  0.89675073     1.06800
C2081       C  0.00807246  0.92183365  0.10325236     1.06800
C2082       C  0.57348062  0.93336843  0.00021733     1.09700
C2083       C  0.94230798  0.91911584  0.01124489     1.07500
H2084       H  0.54307877  0.95803103  0.05999807     0.33100
O2085       O  0.53043419  0.96865299  0.04446303    -1.28800
H2086       H  0.96424418  0.95331018  0.94440227     0.32700
O2087       O  0.97531510  0.96525034  0.96036349    -1.30500
O2088       O  0.00441854  0.53789052  0.12545456    -0.86300
O2089       O  0.99304107  0.54350045  0.88811577    -0.87800
O2090       O  0.57716390  0.99980875  0.06537046    -0.86400
O2091       O  0.92752067  0.98686653  0.07243553    -0.86400
O2092       O  0.92184020  0.49263102  0.94542511    -0.86100
O2093       O  0.57160388  0.50185208  0.93347004    -0.85900
O2094       O  0.53899731  0.57117160  0.00513736    -0.86300
O2095       O  0.95531832  0.56704463  0.01488092    -0.85800
O2096       O  0.57175124  0.54069290  0.99881168    -0.86800
O2097       O  0.92484907  0.53374154  0.01437113    -0.86000
O2098       O  0.54920442  0.99405185  0.11986018    -0.86400
O2099       O  0.53949477  0.50099141  0.88252321    -0.86100
O2100       O  0.94875395  0.49645016  0.88966998    -0.85800
O2101       O  0.95865743  0.98955430  0.12451206    -0.86200
O2102       O  0.00276767  0.56877142  0.07330943    -0.86500
O2103       O  0.99490060  0.57140322  0.94394335    -0.87800
Zr2104     Zr  0.00323980  0.99145689  0.09126341     2.83100
Zr2105     Zr  0.99575611  0.49658748  0.91644913     2.83500
Zr2106     Zr  0.55236227  0.99785268  0.00088072     2.84100
Zr2107     Zr  0.94917094  0.98786129  0.00711620     2.83400
Zr2108     Zr  0.99791961  0.54685173  0.00732575     2.84200
O2109       O  0.97079294  0.52098270  0.96421716    -1.08400
O2110       O  0.52662178  0.52139767  0.04727525    -1.07900
C2111       C  0.00459134  0.56217082  0.11158673     1.06800
C2112       C  0.99300374  0.56718684  0.90494101     1.09400
C2113       C  0.57243043  0.99752893  0.10415317     1.07000
C2114       C  0.93436680  0.98833809  0.11067019     1.07300
C2115       C  0.92551949  0.49482638  0.90635585     1.06900
C2116       C  0.56387576  0.50271283  0.89549775     1.06400
C2117       C  0.56330824  0.56460101  0.00169204     1.06900
C2118       C  0.93166291  0.55833617  0.01743613     1.06400
H2119       H  0.53249153  0.53539704  0.94379031     0.33100
O2120       O  0.52262060  0.52305203  0.96035779    -1.29500
H2121       H  0.96398359  0.52935673  0.06868641     0.33100
O2122       O  0.97474183  0.51880807  0.05082777    -1.30900
N2123       N  0.75639485  0.78594054  0.08558330    -0.36400
N2124       N  0.79118006  0.74058314  0.08618775    -0.57000
N2125       N  0.74704690  0.70500584  0.07188545    -0.36400
N2126       N  0.71214030  0.75001872  0.06899787    -0.57000
C2127       C  0.77979448  0.79828252  0.08054425     0.27200
C2128       C  0.73741604  0.80353883  0.07510758     0.27200
C2129       C  0.76729072  0.68853619  0.06431075     0.27200
C2130       C  0.72529763  0.69355853  0.05539875     0.27200
C2131       C  0.80914875  0.75968772  0.09393655     0.35800
C2132       C  0.80394399  0.71729058  0.08984641     0.35800
C2133       C  0.69873580  0.77283567  0.07405577     0.35800
C2134       C  0.69394928  0.73052105  0.06590017     0.35800
C2135       C  0.77554372  0.82432499  0.06843755    -0.21700
C2136       C  0.74882136  0.82771434  0.06537340    -0.21700
C2137       C  0.75822318  0.66613790  0.04356995    -0.21700
C2138       C  0.73166979  0.66929885  0.03800214    -0.21700
C2139       C  0.83339701  0.74851624  0.10325939    -0.22800
C2140       C  0.83006337  0.72157782  0.10094382    -0.22800
C2141       C  0.67188595  0.76778033  0.07375877    -0.22800
C2142       C  0.66887920  0.74093455  0.06871831    -0.22800
C2143       C  0.80495218  0.78680288  0.08621592    -0.18100
C2144       C  0.71007263  0.79841564  0.07352085    -0.18100
C2145       C  0.69961900  0.70376204  0.05732258    -0.18100
C2146       C  0.79368429  0.69281411  0.07625826    -0.18100
H2147       H  0.79016803  0.83932691  0.06208716     0.14800
H2148       H  0.73897037  0.84581018  0.05604594     0.14800
H2149       H  0.76953648  0.64922251  0.03346226     0.14800
H2150       H  0.71857032  0.65530422  0.02282713     0.14800
H2151       H  0.85179726  0.75874355  0.10918933     0.13100
H2152       H  0.84546620  0.70691125  0.10450094     0.13100
H2153       H  0.65604449  0.78201743  0.07578567     0.13100
H2154       H  0.65036916  0.73038834  0.06631726     0.13100
H2155       H  0.75332697  0.76715259  0.09766286     0.26300
H2156       H  0.74763786  0.72165256  0.09077855     0.26300
C2157       C  0.00341215  0.74385369  0.25620946    -0.02300
C2158       C  0.75404357  0.99946903  0.24950337    -0.02300
C2159       C  0.01167755  0.74582747  0.75075587    -0.02300
C2160       C  0.74564176  0.00428009  0.75842783    -0.02300
C2161       C  0.59631716  0.99906686  0.13136368    -0.11800
C2162       C  0.60725551  0.97632934  0.15018337     0.03700
C2163       C  0.63312214  0.97690982  0.16631101    -0.12300
C2164       C  0.64827410  0.00033455  0.16615207     0.18600
C2165       C  0.63956076  0.52410519  0.14548938    -0.09400
C2166       C  0.61438598  0.52348648  0.12641649    -0.02300
H2167       H  0.64140269  0.95896872  0.17947927     0.05100
C2168       C  0.67539359  0.00038768  0.18545275     0.20500
H2169       H  0.60773780  0.54060270  0.10897928     0.10300
C2170       C  0.69959440  0.50639652  0.16436878    -0.15700
C2171       C  0.72496330  0.50718580  0.18347756     0.03200
C2172       C  0.72751614  0.99940825  0.22266772    -0.11000
C2173       C  0.70420966  0.99421904  0.24502880    -0.01000
C2174       C  0.67897440  0.99466677  0.22739676    -0.06200
H2175       H  0.69783300  0.51025434  0.13160218     0.06300
H2176       H  0.70556841  0.98950097  0.27735243     0.09600
Br2177     Br  0.65900794  0.55672228  0.14472904    -0.05900
Br2178     Br  0.58777714  0.94394091  0.15421273    -0.02800
Br2179     Br  0.75287135  0.51907532  0.14891360     0.00000
Br2180     Br  0.64975181  0.98874923  0.26313075    -0.04400
C2181       C  0.91136132  0.99063156  0.13856227    -0.11800
C2182       C  0.90176878  0.96912755  0.16186206     0.03700
C2183       C  0.87614982  0.96993119  0.17822594    -0.12300
C2184       C  0.85924878  0.99159829  0.17052947     0.18600
C2185       C  0.86599860  0.51174852  0.14336491    -0.09400
C2186       C  0.89133547  0.51251264  0.12701448    -0.02300
H2187       H  0.86923575  0.95337598  0.19635947     0.05100
C2188       C  0.83248265  0.99311882  0.18943430     0.20500
H2189       H  0.89539731  0.52695504  0.10318625     0.10300
C2190       C  0.82883669  0.51321489  0.22286655    -0.15700
C2191       C  0.80470542  0.51634663  0.24284831     0.03200
C2192       C  0.78122647  0.00045424  0.22586912    -0.11000
C2193       C  0.78642976  0.97996020  0.19673687    -0.01000
C2194       C  0.81133637  0.97633228  0.17872093    -0.06200
H2195       H  0.84519623  0.52608372  0.23113470     0.06300
H2196       H  0.77084619  0.96640839  0.18781921     0.09600
Br2197     Br  0.84041749  0.53629271  0.12202618    -0.05900
Br2198     Br  0.92201349  0.93741559  0.16897885    -0.02800
Br2199     Br  0.80879756  0.54200434  0.28688614     0.00000
Br2200     Br  0.81552243  0.94846138  0.13905611    -0.04400
C2201       C  0.00950921  0.89773216  0.12957262    -0.11800
C2202       C  0.52966640  0.87887174  0.12363647     0.03700
C2203       C  0.52782901  0.85335436  0.14063017    -0.12300
C2204       C  0.00601379  0.84583439  0.16380819     0.18600
C2205       C  0.98608015  0.86489694  0.17062879    -0.09400
C2206       C  0.98793610  0.89048848  0.15353720    -0.02300
H2207       H  0.54369957  0.83938191  0.13610239     0.05100
C2208       C  0.00607687  0.81940467  0.18492347     0.20500
H2209       H  0.97189028  0.90431584  0.15734899     0.10300
C2210       C  0.50836254  0.81913254  0.22771126    -0.15700
C2211       C  0.50798817  0.79550578  0.25011646     0.03200
C2212       C  0.00622482  0.77011328  0.22984594    -0.11000
C2213       C  0.00539941  0.77067231  0.18616749    -0.01000
C2214       C  0.00474575  0.79483688  0.16397685    -0.06200
H2215       H  0.50960741  0.83783811  0.24416936     0.06300
H2216       H  0.00498143  0.75239298  0.16883677     0.09600
Br2217     Br  0.95521671  0.85651313  0.20129994    -0.05900
Br2218     Br  0.56039179  0.88719153  0.09259622    -0.02800
Br2219     Br  0.50622243  0.80117029  0.30871075     0.00000
Br2220     Br  0.00039481  0.79332975  0.10523366    -0.04400
C2221       C  0.00668876  0.58519417  0.14036087    -0.11800
C2222       C  0.52571161  0.60515908  0.13375310     0.03700
C2223       C  0.52369646  0.62992907  0.15308322    -0.12300
C2224       C  0.50283208  0.63570618  0.17933836     0.18600
C2225       C  0.98450210  0.61540700  0.18779256    -0.09400
C2226       C  0.98651739  0.59042351  0.16837179    -0.02300
H2227       H  0.53838236  0.64497999  0.14714192     0.05100
C2228       C  0.50179095  0.66260144  0.19889554     0.20500
H2229       H  0.97151511  0.57558121  0.17352525     0.10300
C2230       C  0.98372952  0.68196980  0.18539766    -0.15700
C2231       C  0.98364271  0.70797963  0.20218558     0.03200
C2232       C  0.00289211  0.71594513  0.23257769    -0.11000
C2233       C  0.52025874  0.69517252  0.24603408    -0.01000
C2234       C  0.51985667  0.66951818  0.22988270    -0.06200
H2235       H  0.96935706  0.67670820  0.16176954     0.06300
H2236       H  0.53388682  0.69765524  0.27148888     0.09600
Br2237     Br  0.95635646  0.62101933  0.22533653    -0.05900
Br2238     Br  0.55488580  0.59982523  0.09803889    -0.02800
Br2239     Br  0.95530778  0.73003337  0.18274401     0.00000
Br2240     Br  0.54375865  0.64394724  0.25342487    -0.04400
C2241       C  0.59583168  0.91509044  0.00567341    -0.11800
C2242       C  0.59499418  0.88864548  0.99149965     0.03700
C2243       C  0.61438641  0.87084018  0.00456965    -0.12300
C2244       C  0.63508301  0.87913092  0.03066271     0.18600
C2245       C  0.63722901  0.90599676  0.04177088    -0.09400
C2246       C  0.61752978  0.92366502  0.02966266    -0.02300
H2247       H  0.61336102  0.85039426  0.99430029     0.05100
C2248       C  0.65516746  0.85969818  0.04327098     0.20500
H2249       H  0.61883691  0.94402985  0.04023530     0.10300
C2250       C  0.66984993  0.84757766  0.01236962    -0.15700
C2251       C  0.68813704  0.82801930  0.02214570     0.03200
C2252       C  0.69231982  0.82068990  0.06351268    -0.11000
C2253       C  0.67798382  0.83299372  0.09474218    -0.01000
C2254       C  0.65909809  0.85219679  0.08483716    -0.06200
H2255       H  0.66668973  0.85304103  0.98037159     0.06300
H2256       H  0.68079506  0.82689177  0.12652474     0.09600
Br2257     Br  0.66694207  0.91963368  0.07238970    -0.05900
Br2258     Br  0.56877715  0.87602734  0.95289213    -0.02800
Br2259     Br  0.70622111  0.81099340  0.97787783     0.00000
Br2260     Br  0.63792350  0.86597547  0.12848046    -0.04400
C2261       C  0.92452529  0.89648514  0.01831653    -0.11800
C2262       C  0.89852968  0.89618649  0.00259083     0.03700
C2263       C  0.88125860  0.87626358  0.01474340    -0.12300
C2264       C  0.88958979  0.85611318  0.04163662     0.18600
C2265       C  0.91606354  0.85505209  0.05467247    -0.09400
C2266       C  0.93327376  0.87534252  0.04334431    -0.02300
H2267       H  0.86111453  0.87656527  0.00335173     0.05100
C2268       C  0.87007732  0.83649923  0.05517247     0.20500
H2269       H  0.95335667  0.87492512  0.05500336     0.10300
C2270       C  0.85882706  0.81947829  0.02565344    -0.15700
C2271       C  0.83799146  0.80289598  0.03583688     0.03200
C2272       C  0.82820612  0.80309687  0.07619045    -0.11000
C2273       C  0.83969482  0.81974184  0.10606848    -0.01000
C2274       C  0.86050203  0.83654750  0.09575799    -0.06200
H2275       H  0.86580084  0.81969002  0.99425663     0.06300
H2276       H  0.83199038  0.82015170  0.13700803     0.09600
Br2277     Br  0.92947133  0.82615476  0.08728336    -0.05900
Br2278     Br  0.88592358  0.92145419  0.96265908    -0.02800
Br2279     Br  0.82240916  0.78140801  0.99306339     0.00000
Br2280     Br  0.87393872  0.86050461  0.13708882    -0.04400
C2281       C  0.91084458  0.57788061  0.02529220    -0.11800
C2282       C  0.91555661  0.60099444  0.04925042     0.03700
C2283       C  0.89477596  0.61783953  0.05820169    -0.12300
C2284       C  0.86954267  0.61266769  0.04275330     0.18600
C2285       C  0.86491477  0.59062375  0.01720893    -0.09400
C2286       C  0.88540299  0.57304258  0.00940921    -0.02300
H2287       H  0.89834895  0.63535561  0.07690523     0.05100
C2288       C  0.84885348  0.63182105  0.05132117     0.20500
H2289       H  0.88153862  0.55581353  0.99023643     0.10300
C2290       C  0.84244257  0.65040462  0.02083796    -0.15700
C2291       C  0.82448463  0.67042142  0.02879997     0.03200
C2292       C  0.81251815  0.67161892  0.06750607    -0.11000
C2293       C  0.81865117  0.65290699  0.09797056    -0.01000
C2294       C  0.83712140  0.63317863  0.09028340    -0.06200
H2295       H  0.85191827  0.64965865  0.99116574     0.06300
H2296       H  0.80948212  0.65404085  0.12784984     0.09600
Br2297     Br  0.83118085  0.58431070  0.99170274    -0.05900
Br2298     Br  0.94930250  0.61109772  0.07178736    -0.02800
Br2299     Br  0.81725713  0.69610705  0.98648028     0.00000
Br2300     Br  0.84636496  0.60921577  0.13401669    -0.04400
C2301       C  0.58342217  0.58558477  0.00346782    -0.11800
C2302       C  0.57791385  0.61235467  0.99388920     0.03700
C2303       C  0.59703739  0.63166749  0.00163970    -0.12300
C2304       C  0.62197807  0.62468932  0.01712845     0.18600
C2305       C  0.62797048  0.59784987  0.02430490    -0.09400
C2306       C  0.60872390  0.57866367  0.01784077    -0.02300
H2307       H  0.59240468  0.65229991  0.99570047     0.05100
C2308       C  0.64111095  0.64573965  0.02709297     0.20500
H2309       H  0.61354396  0.55824052  0.02508399     0.10300
C2310       C  0.65046226  0.64817052  0.06783919    -0.15700
C2311       C  0.66919650  0.66730532  0.07828027     0.03200
C2312       C  0.67779503  0.68522989  0.04816730    -0.11000
C2313       C  0.66802966  0.68327726  0.00763205    -0.01000
C2314       C  0.65008669  0.66339186  0.99674807    -0.06200
H2315       H  0.64365175  0.63466419  0.09135963     0.06300
H2316       H  0.67534776  0.69647651  0.98409625     0.09600
Br2317     Br  0.66220270  0.58611065  0.04208975    -0.05900
Br2318     Br  0.54536175  0.62392927  0.96894004    -0.02800
Br2319     Br  0.68363319  0.66727656  0.13328272     0.00000
Br2320     Br  0.64019383  0.65974308  0.93964232    -0.04400
C2321       C  0.77025292  0.50216997  0.78329175    -0.11800
C2322       C  0.78107526  0.97765510  0.80439646     0.03700
C2323       C  0.80673960  0.97542027  0.82161582    -0.12300
C2324       C  0.82321101  0.49706255  0.81821243     0.18600
C2325       C  0.81484321  0.52066490  0.79954323    -0.09400
C2326       C  0.78948786  0.52290273  0.78226413    -0.02300
H2327       H  0.81254143  0.95715382  0.83677102     0.05100
C2328       C  0.84960644  0.49553195  0.83991364     0.20500
H2329       H  0.78602492  0.54141394  0.76684293     0.10300
C2330       C  0.87234130  0.48649702  0.81974328    -0.15700
C2331       C  0.89739157  0.48646413  0.83979813     0.03200
C2332       C  0.90026526  0.49595678  0.88078746    -0.11000
C2333       C  0.87956280  0.00527675  0.89997752    -0.01000
C2334       C  0.85468725  0.00538913  0.88076685    -0.06200
H2335       H  0.87059636  0.47931372  0.78833858     0.06300
H2336       H  0.88134405  0.01362843  0.93068678     0.09600
Br2337     Br  0.83771163  0.55092687  0.79664269    -0.05900
Br2338     Br  0.75995479  0.94613199  0.80894170    -0.02800
Br2339     Br  0.92650788  0.47177437  0.81070334     0.00000
Br2340     Br  0.82571022  0.02055182  0.90985472    -0.04400
C2341       C  0.58574558  0.50513356  0.86582405    -0.11800
C2342       C  0.59780275  0.52983923  0.85779374     0.03700
C2343       C  0.62282645  0.53088161  0.83948756    -0.12300
C2344       C  0.63665787  0.50747608  0.83000400     0.18600
C2345       C  0.62850013  0.97760751  0.84423246    -0.09400
C2346       C  0.60333241  0.97625189  0.86163665    -0.02300
H2347       H  0.63190169  0.54997698  0.83401073     0.05100
C2348       C  0.66398084  0.50866048  0.81290048     0.20500
H2349       H  0.59640617  0.95742719  0.87339139     0.10300
C2350       C  0.68818663  0.99963606  0.84021731    -0.15700
C2351       C  0.71418241  0.00049420  0.82533313     0.03200
C2352       C  0.71650575  0.50555587  0.77968497    -0.11000
C2353       C  0.69389967  0.51236251  0.75518176    -0.01000
C2354       C  0.66839291  0.51396197  0.77114152    -0.06200
H2355       H  0.68508114  0.99550109  0.87255332     0.06300
H2356       H  0.69591147  0.51537599  0.72233099     0.09600
Br2357     Br  0.64826903  0.94535030  0.83985091    -0.05900
Br2358     Br  0.58139788  0.56246572  0.87394944    -0.02800
Br2359     Br  0.74059930  0.99864904  0.86831357     0.00000
Br2360     Br  0.63981480  0.52168363  0.73380319    -0.04400
C2361       C  0.01176104  0.72081167  0.78065906    -0.11800
C2362       C  0.53223623  0.70141277  0.78675365     0.03700
C2363       C  0.52697062  0.67708926  0.80657669    -0.12300
C2364       C  0.00220760  0.67081848  0.82226656     0.18600
C2365       C  0.98323593  0.69139997  0.82218713    -0.09400
C2366       C  0.98856999  0.71608486  0.80339897    -0.02300
H2367       H  0.54269256  0.66273445  0.81008316     0.05100
C2368       C  0.99741995  0.64342900  0.84038698     0.20500
H2369       H  0.97290552  0.73061938  0.80228084     0.10300
C2370       C  0.48638840  0.64112421  0.87957653    -0.15700
C2371       C  0.48197653  0.61636279  0.89796197     0.03200
C2372       C  0.99140108  0.59249824  0.87977097    -0.11000
C2373       C  0.00190123  0.59451541  0.83996751    -0.01000
C2374       C  0.00412835  0.61943230  0.81988572    -0.06200
H2375       H  0.48089973  0.65881854  0.89627811     0.06300
H2376       H  0.00862179  0.57677945  0.82450303     0.09600
Br2377     Br  0.94777076  0.68571260  0.83965302    -0.05900
Br2378     Br  0.56905683  0.70577294  0.77603907    -0.02800
Br2379     Br  0.46105603  0.61695791  0.94690770     0.00000
Br2380     Br  0.01483337  0.61934259  0.76343757    -0.04400
C2381       C  0.00656783  0.77121571  0.77969390    -0.11800
C2382       C  0.52428793  0.78021983  0.81172639     0.03700
C2383       C  0.52192222  0.80592387  0.82886740    -0.12300
C2384       C  0.00145102  0.82306593  0.81704918     0.18600
C2385       C  0.98184306  0.81303469  0.79042672    -0.09400
C2386       C  0.98366838  0.78720339  0.77460739    -0.02300
H2387       H  0.53639065  0.81269895  0.85139812     0.05100
C2388       C  0.99983698  0.85059490  0.83459000     0.20500
H2389       H  0.96660223  0.78023102  0.75784681     0.10300
C2390       C  0.01727737  0.87065577  0.82172417    -0.15700
C2391       C  0.01632790  0.89651673  0.83863174     0.03200
C2392       C  0.99776116  0.90267303  0.86898488    -0.11000
C2393       C  0.47992927  0.88279216  0.88072284    -0.01000
C2394       C  0.48090620  0.85712862  0.86422917    -0.06200
H2395       H  0.03195566  0.86606368  0.79896907     0.06300
H2396       H  0.46594066  0.88688884  0.90479495     0.09600
Br2397     Br  0.95256187  0.83437662  0.77262334    -0.05900
Br2398     Br  0.55351180  0.76013037  0.83257199    -0.02800
Br2399     Br  0.04177535  0.92225062  0.82181929     0.00000
Br2400     Br  0.45715362  0.83119998  0.88583015    -0.04400
C2401       C  0.85671435  0.75346016  0.62625912    -0.11800
C2402       C  0.86296058  0.76806775  0.66256580     0.03700
C2403       C  0.88904138  0.76772177  0.67930792    -0.12300
C2404       C  0.90955881  0.75379130  0.65976258     0.18600
C2405       C  0.90332531  0.73998548  0.62328692    -0.09400
C2406       C  0.87749519  0.73933559  0.60782445    -0.02300
H2407       H  0.89335815  0.77854886  0.70747480     0.05100
C2408       C  0.93669366  0.75120647  0.67898633     0.20500
H2409       H  0.87388740  0.72803199  0.57987230     0.10300
C2410       C  0.94316113  0.72753398  0.69897529    -0.15700
C2411       C  0.96843638  0.72271854  0.71552420     0.03200
C2412       C  0.98788192  0.74353841  0.71759351    -0.11000
C2413       C  0.98254674  0.76536871  0.69077207    -0.01000
C2414       C  0.95728031  0.76943842  0.67241955    -0.06200
H2415       H  0.92857934  0.71184666  0.69966304     0.06300
H2416       H  0.99714876  0.78086604  0.68777729     0.09600
Br2417     Br  0.92988208  0.72257313  0.59183564    -0.05900
Br2418     Br  0.83742927  0.78998056  0.68895558    -0.02800
Br2419     Br  0.97444423  0.68536251  0.72428383     0.00000
Br2420     Br  0.95131083  0.80029555  0.63913453    -0.04400
C2421       C  0.53850677  0.74943575  0.72598901    -0.11800
C2422       C  0.54815199  0.73086493  0.69622920     0.03700
C2423       C  0.57410994  0.73260257  0.68109857    -0.12300
C2424       C  0.59147786  0.75276678  0.69369735     0.18600
C2425       C  0.58137361  0.77286020  0.71897261    -0.09400
C2426       C  0.55520600  0.77185870  0.73251997    -0.02300
H2427       H  0.58091361  0.71779636  0.65950942     0.05100
C2428       C  0.61872963  0.75464677  0.67609219     0.20500
H2429       H  0.54866854  0.78911883  0.74884664     0.10300
C2430       C  0.62425582  0.77569538  0.64936766    -0.15700
C2431       C  0.64883204  0.77829741  0.63077260     0.03200
C2432       C  0.66912644  0.75958316  0.63833218    -0.11000
C2433       C  0.66400983  0.73881496  0.66608364    -0.01000
C2434       C  0.63912555  0.73618674  0.68473044    -0.06200
H2435       H  0.60902995  0.79005716  0.64216928     0.06300
H2436       H  0.67885708  0.72377300  0.67155101     0.09600
Br2437     Br  0.60312899  0.80179371  0.73765398    -0.05900
Br2438     Br  0.52866149  0.70130311  0.67547425    -0.02800
Br2439     Br  0.65316623  0.80772185  0.59389901     0.00000
Br2440     Br  0.63390551  0.70677428  0.72103679    -0.04400
C2441       C  0.74421537  0.53178539  0.73163964    -0.11800
C2442       C  0.74049769  0.55676441  0.75251341     0.03700
C2443       C  0.74181628  0.58105126  0.73158039    -0.12300
C2444       C  0.74722396  0.58253931  0.68967204     0.18600
C2445       C  0.75073767  0.55844137  0.66811881    -0.09400
C2446       C  0.74857468  0.53362624  0.68855045    -0.02300
H2447       H  0.73940901  0.59932440  0.74876691     0.05100
C2448       C  0.74975925  0.60963985  0.67026286     0.20500
H2449       H  0.75081348  0.51593259  0.67021686     0.10300
C2450       C  0.77419358  0.61836451  0.65570983    -0.15700
C2451       C  0.77725638  0.64386739  0.63859290     0.03200
C2452       C  0.75606268  0.66203727  0.63729982    -0.11000
C2453       C  0.73170644  0.65346836  0.65241835    -0.01000
C2454       C  0.72841445  0.62764089  0.66841489    -0.06200
H2455       H  0.79089177  0.60504963  0.65684255     0.06300
H2456       H  0.71470824  0.66629632  0.64930162     0.09600
Br2457     Br  0.75833630  0.55859347  0.61040183    -0.05900
Br2458     Br  0.73639232  0.56098448  0.81095735    -0.02800
Br2459     Br  0.81037072  0.65241052  0.61426485     0.00000
Br2460     Br  0.69370180  0.61684910  0.68359310    -0.04400
C2461       C  0.76725526  0.85137005  0.62654434    -0.11800
C2462       C  0.77673533  0.87537238  0.60881046     0.03700
C2463       C  0.77353907  0.89987757  0.62872347    -0.12300
C2464       C  0.76315129  0.90174925  0.66834698     0.18600
C2465       C  0.75603807  0.87754325  0.68799411    -0.09400
C2466       C  0.75759471  0.85294769  0.66688866    -0.02300
H2467       H  0.77907604  0.91776030  0.61258554     0.05100
C2468       C  0.75809433  0.92896303  0.68693666     0.20500
H2469       H  0.75076845  0.83510079  0.68190414     0.10300
C2470       C  0.73329998  0.93431430  0.70257788    -0.15700
C2471       C  0.72752617  0.95770114  0.72438486     0.03200
C2472       C  0.74640167  0.97926687  0.72764095    -0.11000
C2473       C  0.77027205  0.97467912  0.70630808    -0.01000
C2474       C  0.77662584  0.94993540  0.68823497    -0.06200
H2475       H  0.71840346  0.91899130  0.69987613     0.06300
H2476       H  0.78540608  0.98980259  0.70710424     0.09600
Br2477     Br  0.74487335  0.87653423  0.74424651    -0.05900
Br2478     Br  0.79583529  0.87673158  0.55811304    -0.02800
Br2479     Br  0.69483134  0.95266376  0.75237480     0.00000
Br2480     Br  0.81204210  0.94532540  0.66993123    -0.04400
C2481       C  0.83846253  0.65972949  0.49258257    -0.11800
C2482       C  0.82984381  0.63404857  0.48006789     0.03700
C2483       C  0.84826857  0.61415561  0.47297626    -0.12300
C2484       C  0.87510340  0.61921400  0.47772815     0.18600
C2485       C  0.88383020  0.64432797  0.49067557    -0.09400
C2486       C  0.86558146  0.66431579  0.49818651    -0.02300
H2487       H  0.84168503  0.59476115  0.46266412     0.05100
C2488       C  0.89395921  0.59856038  0.46676329     0.20500
H2489       H  0.87274551  0.68363007  0.50783208     0.10300
C2490       C  0.90239792  0.59697491  0.42590853    -0.15700
C2491       C  0.92231114  0.57935904  0.41521787     0.03200
C2492       C  0.93394584  0.56330021  0.44580826    -0.11000
C2493       C  0.92469819  0.56410453  0.48626931    -0.01000
C2494       C  0.90465721  0.58154094  0.49687228    -0.06200
H2495       H  0.89387409  0.60988201  0.40259523     0.06300
H2496       H  0.93341005  0.55140868  0.50969247     0.09600
Br2497     Br  0.92058140  0.65230624  0.49702607    -0.05900
Br2498     Br  0.79377524  0.62439326  0.46894037    -0.02800
Br2499     Br  0.93325040  0.57798087  0.35895848     0.00000
Br2500     Br  0.89273766  0.58181631  0.55267603    -0.04400
C2501       C  0.66704080  0.66996872  0.50743320    -0.11800
C2502       C  0.64020809  0.67728594  0.50272879     0.03700
C2503       C  0.62151905  0.65800761  0.49245399    -0.12300
C2504       C  0.62871920  0.63144114  0.48811236     0.18600
C2505       C  0.65475550  0.62364570  0.49607301    -0.09400
C2506       C  0.67368143  0.64281312  0.50550158    -0.02300
H2507       H  0.60118187  0.66376912  0.48760442     0.05100
C2508       C  0.60865489  0.61206271  0.47550644     0.20500
H2509       H  0.69382549  0.63635238  0.51002488     0.10300
C2510       C  0.60243300  0.60901061  0.43350176    -0.15700
C2511       C  0.58357292  0.59047866  0.42064495     0.03200
C2512       C  0.57097570  0.57467253  0.45008626    -0.11000
C2513       C  0.57706411  0.57799931  0.49215220    -0.01000
C2514       C  0.59563573  0.59677370  0.50500814    -0.06200
H2515       H  0.61232327  0.62100879  0.41077600     0.06300
H2516       H  0.56726112  0.56598951  0.51494642     0.09600
Br2517     Br  0.66536553  0.58714388  0.49323452    -0.05900
Br2518     Br  0.62692176  0.71273329  0.50957612    -0.02800
Br2519     Br  0.57562053  0.58718378  0.36287368     0.00000
Br2520     Br  0.60256482  0.60135610  0.56294011    -0.04400
C2521       C  0.67615341  0.84660321  0.49179320    -0.11800
C2522       C  0.68244243  0.87376566  0.49848668     0.03700
C2523       C  0.66410350  0.89347582  0.48806479    -0.12300
C2524       C  0.63939366  0.88685358  0.47136448     0.18600
C2525       C  0.63281383  0.85997970  0.46568414    -0.09400
C2526       C  0.65100499  0.84023668  0.47595800    -0.02300
H2527       H  0.66920166  0.91415044  0.49277013     0.05100
C2528       C  0.62061838  0.90805359  0.45978911     0.20500
H2529       H  0.64558928  0.81975385  0.47030649     0.10300
C2530       C  0.61341841  0.91134080  0.41808596    -0.15700
C2531       C  0.59354763  0.92910816  0.40654241     0.03200
C2532       C  0.58090401  0.94405321  0.43691419    -0.11000
C2533       C  0.58899165  0.94185807  0.47827279    -0.01000
C2534       C  0.60868727  0.92398166  0.48991871    -0.06200
H2535       H  0.62272809  0.89942156  0.39465082     0.06300
H2536       H  0.57925646  0.95344168  0.50169532     0.06800
Br2537     Br  0.59909949  0.84915037  0.44408338    -0.05900
Br2538     Br  0.71523302  0.88582077  0.52219240    -0.02800
Br2539     Br  0.58352900  0.93180469  0.34943989     0.00000
Br2540     Br  0.61730440  0.92090905  0.54750872    -0.04400
C2541       C  0.94503597  0.92783062  0.43660324    -0.11800
C2542       C  0.93561209  0.91110221  0.40497788     0.03700
C2543       C  0.91770757  0.89113247  0.41427683    -0.12300
C2544       C  0.90957125  0.88756787  0.45493870     0.18600
C2545       C  0.91997031  0.90343979  0.48685135    -0.09400
C2546       C  0.93739296  0.92372905  0.47741620    -0.02300
H2547       H  0.90976887  0.87868414  0.38981789     0.05100
C2548       C  0.88877304  0.86861339  0.46363094     0.20500
H2549       H  0.94499003  0.93640348  0.50184402     0.10300
C2550       C  0.89495633  0.84571158  0.48598958    -0.15700
C2551       C  0.87512718  0.82889255  0.49929731     0.03200
C2552       C  0.84868410  0.83451571  0.48845102    -0.11000
C2553       C  0.84268330  0.85774328  0.46631251    -0.01000
C2554       C  0.86250533  0.87481775  0.45402872    -0.06200
H2555       H  0.91523174  0.84150892  0.49442672     0.06300
H2556       H  0.82256215  0.86237397  0.45753576     0.09600
Br2557     Br  0.91023697  0.89849189  0.54336568    -0.05900
Br2558     Br  0.94640833  0.91515123  0.34898716    -0.02800
Br2559     Br  0.88553953  0.79999917  0.53457081     0.00000
Br2560     Br  0.85275580  0.90673011  0.42530902    -0.04400
C2561       C  0.65937297  0.74701477  0.37992695    -0.11800
C2562       C  0.64960231  0.76673881  0.35315016     0.03700
C2563       C  0.62332472  0.76569744  0.33856982    -0.12300
C2564       C  0.60597138  0.74510154  0.34989298     0.18600
C2565       C  0.61612319  0.72487695  0.37587061    -0.09400
C2566       C  0.64226383  0.72622450  0.39085819    -0.02300
H2567       H  0.61634250  0.78117357  0.31801572     0.05100
C2568       C  0.57914029  0.74371746  0.32910064     0.20500
H2569       H  0.64922367  0.71104117  0.41200269     0.10300
C2570       C  0.57846761  0.74299825  0.28610055    -0.15700
C2571       C  0.55489905  0.74374773  0.26331405     0.03200
C2572       C  0.52979533  0.74458242  0.28312308    -0.11000
C2573       C  0.53060171  0.74507077  0.32679337    -0.01000
C2574       C  0.55469337  0.74498924  0.34954270    -0.06200
H2575       H  0.59684813  0.74191995  0.26970416     0.06300
H2576       H  0.51250748  0.74647586  0.34364126     0.09600
Br2577     Br  0.59590637  0.69432812  0.39092533    -0.05900
Br2578     Br  0.67113000  0.79607006  0.33718838    -0.02800
Br2579     Br  0.55978008  0.74121966  0.20465314     0.00000
Br2580     Br  0.55279068  0.74861401  0.40821585    -0.04400
C2581       C  0.84463621  0.75075370  0.36421033    -0.11800
C2582       C  0.86166732  0.77287359  0.36486732     0.03700
C2583       C  0.88644798  0.77154182  0.34652637    -0.12300
C2584       C  0.89477822  0.74853541  0.32595540     0.18600
C2585       C  0.87683824  0.72713300  0.32233328    -0.09400
C2586       C  0.85223492  0.72821689  0.34184474    -0.02300
H2587       H  0.89952381  0.78846178  0.34907866     0.05100
C2588       C  0.92219923  0.74740960  0.30915703     0.20500
H2589       H  0.83947575  0.71104239  0.34080401     0.10300
C2590       C  0.94021804  0.72802947  0.32279002    -0.15700
C2591       C  0.96626623  0.72669477  0.30798964     0.03200
C2592       C  0.97577987  0.74572956  0.27905703    -0.11000
C2593       C  0.95666939  0.76501658  0.26596296    -0.01000
C2594       C  0.93091176  0.76599542  0.28036647    -0.06200
H2595       H  0.93383335  0.71347973  0.34505969     0.06300
H2596       H  0.96046907  0.77908559  0.24182642     0.09600
Br2597     Br  0.88480021  0.69623665  0.29037646    -0.05900
Br2598     Br  0.85187657  0.80541923  0.39102681    -0.02800
Br2599     Br  0.98628750  0.69706549  0.32810412     0.00000
Br2600     Br  0.90777040  0.79214745  0.25635471    -0.04400
C2601       C  0.75839315  0.84159835  0.36449347    -0.11800
C2602       C  0.73787401  0.86025968  0.36728017     0.03700
C2603       C  0.73958081  0.88483931  0.34764142    -0.12300
C2604       C  0.76176103  0.89182544  0.32505845     0.18600
C2605       C  0.78236119  0.87316360  0.32152778    -0.09400
C2606       C  0.78055840  0.84821506  0.34114696    -0.02300
H2607       H  0.72356472  0.89884991  0.35053777     0.05100
C2608       C  0.76192577  0.91842031  0.30475626     0.20500
H2609       H  0.79694634  0.83454312  0.33975109     0.10300
C2610       C  0.77611306  0.93964528  0.32198305    -0.15700
C2611       C  0.77408419  0.96563132  0.30587320     0.03200
C2612       C  0.75603598  0.97167420  0.27276035    -0.11000
C2613       C  0.74323863  0.94912794  0.25468981    -0.01000
C2614       C  0.74578048  0.92338974  0.27035506    -0.06200
H2615       H  0.78886860  0.93596758  0.34843253     0.06300
H2616       H  0.73158102  0.95083459  0.22671720     0.09600
Br2617     Br  0.81338130  0.88119115  0.29114436    -0.05900
Br2618     Br  0.70727708  0.85349400  0.39918431    -0.02800
Br2619     Br  0.79684206  0.99083693  0.33235859     0.00000
Br2620     Br  0.72721158  0.89514924  0.24271337    -0.04400
C2621       C  0.75089019  0.52665581  0.27969243    -0.11800
C2622       C  0.74350595  0.52984831  0.32185023     0.03700
C2623       C  0.74311126  0.55545447  0.33995352    -0.12300
C2624       C  0.74778803  0.57860175  0.31691109     0.18600
C2625       C  0.75152415  0.57582371  0.27438518    -0.09400
C2626       C  0.75267136  0.55055077  0.25646411    -0.02300
H2627       H  0.73844157  0.55739472  0.37228615     0.05100
C2628       C  0.74822563  0.60551018  0.33708843     0.20500
H2629       H  0.75639445  0.54958180  0.22380688     0.10300
C2630       C  0.77187257  0.62006375  0.33947753    -0.15700
C2631       C  0.77302174  0.64526831  0.35837297     0.03200
C2632       C  0.75026496  0.65667433  0.37532698    -0.11000
C2633       C  0.72658768  0.64223315  0.37255987    -0.01000
C2634       C  0.72537990  0.61712442  0.35339505    -0.06200
H2635       H  0.78966605  0.61155693  0.32717030     0.06300
H2636       H  0.70898603  0.65032424  0.38612234     0.09600
Br2637     Br  0.75512655  0.60608373  0.23905377    -0.05900
Br2638     Br  0.72953119  0.50225337  0.35605797    -0.02800
Br2639     Br  0.80646853  0.66268116  0.36274800     0.00000
Br2640     Br  0.69195849  0.59956693  0.34949144    -0.04400
loop_ 
_geom_bond_atom_site_label_1 
_geom_bond_atom_site_label_2 
_geom_bond_distance 
_geom_bond_site_symmetry_2 
_ccdc_geom_bond_type 
O1          Zr37   2.508       .  S
O1           C12   1.306       .  A
O2          Zr36   2.522       .  S
O2           C13   1.309       .  A
O3           Zr9   2.410       .  S
O3           C14   1.283       .  A
O4           Zr9   2.418       .  S
O4           C15   1.288       .  A
O5          Zr39   2.421       .  S
O5           C15   1.285       .  A
O6          Zr38   2.419       .  S
O6           C14   1.288       .  A
O7           Zr9   2.416       .  S
O7           C13   1.288       .  A
O8           Zr9   2.434       .  S
O8           C12   1.290       .  A
Zr9          O10   2.340       .  S
Zr9          O11   2.336       .  S
Zr9          O19   2.329       .  S
Zr9          O17   2.348       .  S
O10         Zr36   2.377       .  S
O10         Zr39   2.339       .  S
O11         Zr37   2.355       .  S
O11         Zr38   2.328       .  S
C12         C652   1.497       .  S
C13         C472   1.497       .  S
C14         C501   1.478       .  S
C15         C521   1.484       .  S
H16          O17   0.960       .  S
O17         Zr36   2.380       .  S
O17         Zr38   2.343       .  S
H18          O19   0.966       .  S
O19         Zr37   2.357       .  S
O19         Zr39   2.330       .  S
O20         Zr36   2.542       .  S
O20          C43   1.313       .  A
O21         Zr37   2.505       .  S
O21          C44   1.305       .  A
O22         Zr38   2.407       .  S
O22          C45   1.288       .  A
O23         Zr39   2.420       .  S
O23          C46   1.289       .  A
O24         Zr39   2.429       .  S
O24          C47   1.290       .  A
O25         Zr38   2.422       .  S
O25          C48   1.287       .  A
O26         Zr40   2.433       .  S
O26          C49   1.290       .  A
O27         Zr40   2.418       .  S
O27          C50   1.285       .  A
O28         Zr38   2.423       .  S
O28          C49   1.287       .  A
O29         Zr39   2.416       .  S
O29          C50   1.288       .  A
O30         Zr36   2.547       .  S
O30          C45   1.313       .  A
O31         Zr37   2.514       .  S
O31          C48   1.307       .  A
O32         Zr37   2.492       .  S
O32          C47   1.302       .  A
O33         Zr36   2.538       .  S
O33          C46   1.312       .  A
O34         Zr40   2.414       .  S
O34          C43   1.286       .  A
O35         Zr40   2.408       .  S
O35          C44   1.286       .  A
Zr36         O42   2.370       .  S
Zr36         O54   2.366       .  S
Zr37         O41   2.365       .  S
Zr37         O52   2.353       .  S
Zr38         O42   2.341       .  S
Zr38         O52   2.331       .  S
Zr39         O41   2.335       .  S
Zr39         O54   2.341       .  S
Zr40         O41   2.338       .  S
Zr40         O42   2.333       .  S
Zr40         O54   2.340       .  S
Zr40         O52   2.336       .  S
C43         C481   1.523       .  S
C44         C621   1.484       .  S
C45         C421   1.518       .  S
C46         C452   1.508       .  S
C47         C581   1.488       .  S
C48         C601   1.496       .  S
C49         C572   1.473       .  S
C50         C541   1.478       .  S
H51          O52   0.960       .  S
H53          O54   0.960       .  S
N55          C60   1.353       .  A
N55        C1379   1.351       .  A
N55          H87   1.040       .  S
N56          C64   1.348       .  A
N56         C723   1.348   1_545  A
N57          C62   1.350       .  A
N57        C1381   1.352       .  A
N57          H88   1.040       .  S
N58          C66   1.347   1_565  A
N58         C725   1.348       .  A
C59        N1375   1.351       .  A
C59          C67   1.388       .  A
C59          C75   1.412       .  A
C60          C76   1.411       .  A
C60          C68   1.386       .  A
C61        N1377   1.352       .  A
C61          C69   1.387       .  A
C61          C78   1.411       .  A
C62          C77   1.411       .  A
C62          C70   1.388       .  A
C63         N716   1.347       .  A
C63          C75   1.405       .  A
C63          C71   1.386       .  A
C64          C78   1.407       .  A
C64          C72   1.386       .  A
C65         N718   1.350       .  A
C65          C73   1.386       .  A
C65          C76   1.410       .  A
C66          C74   1.386       .  A
C66          C77   1.406       .  A
C67        C1388   1.373       .  A
C67          H79   1.082       .  S
C68        C1387   1.373       .  A
C68          H80   1.082       .  S
C69        C1390   1.372   1_455  A
C69          H81   1.082       .  S
C70        C1389   1.372       .  A
C70          H82   1.083       .  S
C71         C732   1.371       .  A
C71          H83   1.083       .  S
C72         C731   1.372   1_545  A
C72          H84   1.082       .  S
C73         C734   1.371       .  A
C73          H85   1.082       .  S
C74         C733   1.372   1_545  A
C74          H86   1.083       .  S
C75         C552   1.473       .  S
C76         C561   1.484       .  S
C77         C512   1.472       .  S
C78         C532   1.477       .  S
O89        Zr785   2.537       .  S
O89         C100   1.312       .  A
O90        Zr124   2.508       .  S
O90         C101   1.306       .  A
O91       Zr1417   2.432   1_556  S
O91         C102   1.289       .  A
O92         Zr97   2.408       .  S
O92         C103   1.286       .  A
O93        Zr127   2.430       .  S
O93         C103   1.288       .  A
O94        Zr126   2.396   1_556  S
O94         C102   1.284       .  A
O95         Zr97   2.427       .  S
O95         C101   1.289       .  A
O96         Zr97   2.411   1_556  S
O96         C100   1.288       .  A
Zr97       O1411   2.432   1_554  S
Zr97         O98   2.332       .  S
Zr97        O107   2.355   1_554  S
Zr97       O1419   2.336   1_554  S
Zr97       O1425   2.335       .  S
O98        Zr124   2.354       .  S
O98        Zr127   2.334       .  S
O99        Zr126   2.338   1_556  S
O99       Zr1417   2.336   1_556  S
O99       Zr2105   2.379   1_455  S
C100        C412   1.510       .  S
C101        C221   1.494       .  S
C102        C261   1.470       .  S
C103        C281   1.476       .  S
H104        O105   0.971       .  S
O105       Zr126   2.341       .  S
O105      Zr1417   2.335       .  S
O105      Zr1444   2.373       .  S
H106        O107   0.969       .  S
O107       Zr127   2.333   1_556  S
O107       Zr785   2.371       .  S
O108       Zr784   2.503   1_545  S
O108        C131   1.304       .  A
O109       Zr125   2.535   1_545  S
O109        C132   1.311       .  A
O110       Zr126   2.435       .  S
O110        C133   1.291       .  A
O111       Zr127   2.388       .  S
O111        C134   1.283       .  A
O112       Zr787   2.405   1_556  S
O112        C135   1.287       .  A
O113       Zr786   2.423   1_556  S
O113        C136   1.288       .  A
O114      Zr1448   2.430   1_455  S
O114        C137   1.289       .  A
O115       Zr128   2.415       .  S
O115        C138   1.285       .  A
O116       Zr786   2.408   1_545  S
O116        C137   1.285       .  A
O117       Zr787   2.412   1_545  S
O117        C138   1.287       .  A
O118      Zr1444   2.521       .  S
O118        C133   1.309       .  A
O119      Zr1445   2.510   1_455  S
O119        C136   1.307       .  A
O120       Zr125   2.526       .  S
O120        C135   1.309       .  A
O121       Zr124   2.539       .  S
O121        C134   1.312       .  A
O122       Zr128   2.421       .  S
O122        C131   1.289       .  A
O123       Zr128   2.405   1_556  S
O123        C132   1.284       .  A
Zr124       O768   2.502       .  S
Zr124      O1438   2.521       .  S
Zr124      O1425   2.373       .  S
Zr124      O2110   2.363       .  S
Zr124       O802   2.358       .  S
Zr125       O749   2.513       .  S
Zr125      O1439   2.510       .  S
Zr125       O129   2.357   1_565  S
Zr125      O2079   2.374       .  S
Zr125       O767   2.373       .  S
Zr125      O1460   2.367   1_565  S
Zr126       O773   2.418   1_554  S
Zr126       O776   2.396   1_554  S
Zr126       O790   2.329       .  S
Zr126       O800   2.331   1_554  S
Zr127       O772   2.416   1_554  S
Zr127       O777   2.433       .  S
Zr127       O789   2.332   1_554  S
Zr127       O802   2.341       .  S
Zr128      O1434   2.430       .  S
Zr128       O129   2.338   1_554  S
Zr128       O142   2.336       .  S
Zr128      O1450   2.327       .  S
Zr128      O1460   2.333   1_554  S
O129       Zr787   2.342   1_546  S
O130      Zr2104   2.366   1_545  S
O130       Zr786   2.335   1_545  S
O130      Zr1448   2.327   1_455  S
C131        C241   1.490       .  S
C132        C392   1.515       .  S
C133        C181   1.505       .  S
C134        C201   1.500       .  S
C135        C352   1.508       .  S
C136        C361   1.492       .  S
C137        C321   1.462       .  S
C138        C301   1.469       .  S
H139        O140   0.969       .  S
O140      Zr1445   2.367   1_445  S
O140       Zr786   2.337   1_546  S
O140      Zr1448   2.333   1_456  S
H141        O142   0.963       .  S
O142       Zr784   2.349   1_545  S
O142       Zr787   2.340   1_545  S
N143        C148   1.350       .  A
N143        C147   1.346       .  A
N143        H175   1.038       .  S
N144        C151   1.347       .  A
N144        C152   1.349       .  A
N145        C150   1.347       .  A
N145        C149   1.349       .  A
N145        H176   1.036       .  S
N146        C153   1.347       .  A
N146        C154   1.345       .  A
C147        C155   1.388       .  A
C147        C163   1.408       .  A
C148        C164   1.406       .  A
C148        C156   1.385       .  A
C149        C157   1.386       .  A
C149        C166   1.406       .  A
C150        C165   1.410       .  A
C150        C158   1.389       .  A
C151        C163   1.407       .  A
C151        C159   1.387       .  A
C152        C166   1.408       .  A
C152        C160   1.386       .  A
C153        C161   1.386       .  A
C153        C164   1.403       .  A
C154        C162   1.387       .  A
C154        C165   1.404       .  A
C155        C156   1.376       .  A
C155        H167   1.082       .  S
C156        H168   1.082       .  S
C157        C158   1.374       .  A
C157        H169   1.083       .  S
C158        H170   1.083       .  S
C159        C160   1.372       .  A
C159        H171   1.082       .  S
C160        H172   1.083       .  S
C161        C162   1.369       .  A
C161        H173   1.082   1_554  S
C162        H174   1.082   1_554  S
C163        C292   1.468       .  S
C164        C272   1.472       .  S
C165        C332   1.467       .  S
C166        C312   1.472       .  S
C177        C232   1.588       .  S
C177        C252   1.596       .  S
C177        C612   1.603       .  S
C177       C1912   1.587       .  S
C178        C192   1.595       .  S
C178        C212   1.601       .  S
C178        C632   1.595       .  S
C178       C1301   1.579       .  S
C179        C381   1.592       .  S
C179        C401   1.615       .  S
C179        C432   1.609       .  S
C179       C1761   1.609       .  S
C180        C492   1.611       .  S
C180       C1001   1.608       .  S
C180       C1032   1.589       .  S
C180       C1121   1.603       .  S
C181        C182   1.410       .  A
C181        C846   1.412       .  A
C182        C183   1.411       .  A
C182       Br198   1.911       .  S
C183        C184   1.411       .  A
C183        H187   1.083       .  S
C184        C188   1.514       .  S
C184        C845   1.413       .  A
C185        C186   1.408       .  A
C185        C844   1.412       .  A
C185       Br197   1.916       .  S
C186        C841   1.408   1_545  A
C186        H189   1.083       .  S
C188        C194   1.403       .  A
C188        C850   1.415       .  A
C190        C191   1.421       .  A
C190        C848   1.410       .  A
C190        H195   1.083       .  S
C191        C852   1.433   1_545  A
C191       Br199   1.920       .  S
C192        C193   1.424       .  A
C192        C851   1.428       .  A
C193        C194   1.396       .  A
C193        H196   1.076       .  S
C194       Br200   1.923       .  S
C201        C202   1.412       .  A
C201        C866   1.411       .  A
C202        C203   1.419       .  A
C202       Br218   1.915       .  S
C203        C204   1.413       .  A
C203        H207   1.083       .  S
C204        C208   1.506       .  S
C204        C865   1.408       .  A
C205        C206   1.403       .  A
C205        C864   1.411   1_545  A
C205       Br217   1.922       .  S
C206        C861   1.408   1_545  A
C206        H209   1.084       .  S
C208        C214   1.407       .  A
C208        C870   1.390       .  A
C210        C211   1.402       .  A
C210        C868   1.391   1_545  A
C210        H215   1.085       .  S
C211        C872   1.449       .  A
C211       Br219   1.933       .  S
C212        C213   1.426       .  A
C212        C871   1.453       .  A
C213        C214   1.419       .  A
C213        H216   1.082       .  S
C214       Br220   1.916       .  S
C221        C226   1.406       .  A
C221       C1542   1.413       .  A
C222        C223   1.406       .  A
C222       C1541   1.413       .  A
C222       Br238   1.916       .  S
C223       C1544   1.404       .  A
C223        H227   1.083       .  S
C224        C228   1.504       .  S
C224        C225   1.418       .  A
C224       C1543   1.404       .  A
C225        C226   1.411       .  A
C225       Br237   1.921       .  S
C226        H229   1.083       .  S
C228        C234   1.413       .  A
C228       C1550   1.392       .  A
C230        C231   1.398       .  A
C230       C1548   1.392       .  A
C230        H235   1.084       .  S
C231       C1552   1.440       .  A
C231       Br239   1.924   1_455  S
C232        C233   1.416       .  A
C232       C1551   1.440       .  A
C233        C234   1.415       .  A
C233        H236   1.078       .  S
C234       Br240   1.917       .  S
C241        C246   1.407       .  A
C241       C1562   1.411       .  A
C242        C243   1.404       .  A
C242       C1561   1.411       .  A
C242       Br258   1.918       .  S
C243        C244   1.405       .  A
C243        H247   1.083       .  S
C244        C248   1.502       .  S
C244       C1565   1.415   1_455  A
C245        C246   1.412       .  A
C245       C1564   1.415       .  A
C245       Br257   1.917       .  S
C246        H249   1.083       .  S
C248        C254   1.398       .  A
C248       C1570   1.405   1_455  A
C250        C251   1.418       .  A
C250       C1568   1.405       .  A
C250        H255   1.083       .  S
C251        C252   1.435       .  A
C251       Br259   1.919       .  S
C252       C1573   1.432       .  A
C253        C254   1.399       .  A
C253       C1572   1.432       .  A
C253        H256   1.078       .  S
C254       Br260   1.922       .  S
C261        C262   1.412       .  A
C261        C266   1.407   1_556  A
C262        C263   1.397       .  A
C262       Br278   1.923       .  S
C263        C264   1.401   1_556  A
C263        H267   1.084       .  S
C264        C268   1.461       .  S
C264        C265   1.400       .  A
C265        C266   1.389       .  A
C265       Br277   1.920       .  S
C266        H269   1.084       .  S
C268        C270   1.399   1_554  A
C268        C274   1.405       .  A
C270        C271   1.396       .  A
C270        H275   1.083       .  S
C271        C272   1.407   1_556  A
C271       Br279   1.918       .  S
C272        C273   1.401       .  A
C273        C274   1.392       .  A
C273        H276   1.083       .  S
C274       Br280   1.921       .  S
C281        C282   1.418       .  A
C281        C286   1.410       .  A
C282        C283   1.391       .  A
C282       Br298   1.922       .  S
C283        C284   1.395       .  A
C283        H287   1.084       .  S
C284        C288   1.456       .  S
C284        C285   1.400       .  A
C285        C286   1.393       .  A
C285       Br297   1.919       .  S
C286        H289   1.083       .  S
C288        C290   1.398       .  A
C288        C294   1.404       .  A
C290        C291   1.387       .  A
C290        H295   1.084   1_554  S
C291        C292   1.406       .  A
C291       Br299   1.921   1_554  S
C292        C293   1.402       .  A
C293        C294   1.395       .  A
C293        H296   1.083       .  S
C294       Br300   1.918       .  S
C301        C302   1.415       .  A
C301        C306   1.407       .  A
C302        C303   1.388       .  A
C302       Br318   1.926       .  S
C303        C304   1.398       .  A
C303        H307   1.084       .  S
C304        C308   1.466       .  S
C304        C305   1.406       .  A
C305        C306   1.393       .  A
C305       Br317   1.920       .  S
C306        H309   1.083   1_554  S
C308        C310   1.400       .  A
C308        C314   1.410       .  A
C310        C311   1.390       .  A
C310        H315   1.084   1_554  S
C311        C312   1.406       .  A
C311       Br319   1.918   1_554  S
C312        C313   1.400       .  A
C313        C314   1.395       .  A
C313        H316   1.083       .  S
C314       Br320   1.922       .  S
C321        C322   1.410   1_554  A
C321        C326   1.403       .  A
C322        C323   1.395       .  A
C322       Br338   1.916       .  S
C323        C324   1.397   1_556  A
C323        H327   1.084       .  S
C324        C328   1.455       .  S
C324        C325   1.402       .  A
C325        C326   1.390       .  A
C325       Br337   1.920       .  S
C326        H329   1.084       .  S
C328        C330   1.399       .  A
C328        C334   1.404   1_554  A
C330        C331   1.390       .  A
C330        H335   1.084       .  S
C331        C332   1.406       .  A
C331       Br339   1.920       .  S
C332        C333   1.401   1_554  A
C333        C334   1.390       .  A
C333        H336   1.084       .  S
C334       Br340   1.917       .  S
C341        C346   1.430       .  A
C341       C1002   1.440   1_545  A
C341        C840   1.600       .  S
C342        C343   1.419       .  A
C342       C1001   1.441       .  A
C342       Br358   1.924       .  S
C343       C1004   1.404       .  A
C343        H347   1.083       .  S
C344        C348   1.498       .  S
C344        C345   1.397   1_565  A
C344       C1003   1.403       .  A
C345        C346   1.397       .  A
C345       Br357   1.921       .  S
C346        H349   1.073       .  S
C348        C350   1.410       .  A
C348       C1014   1.404   1_565  A
C350        C351   1.417       .  A
C350        H355   1.083       .  S
C351        C352   1.414       .  A
C351       Br359   1.916       .  S
C352       C1013   1.415   1_565  A
C353        C354   1.404       .  A
C353       C1012   1.417       .  A
C353        H356   1.083       .  S
C354       C1008   1.405       .  A
C354       Br360   1.920       .  S
C361        C362   1.411   1_565  A
C361       C1026   1.408       .  A
C362        C363   1.409       .  A
C362       Br378   1.917       .  S
C363        C364   1.407       .  A
C363        H367   1.083       .  S
C364        C368   1.503       .  S
C364       C1025   1.413   1_545  A
C365        C366   1.404       .  A
C365       C1024   1.412       .  A
C365       Br377   1.913       .  S
C366       C1021   1.401       .  A
C366        H369   1.084       .  S
C368        C374   1.403       .  A
C368       C1030   1.406   1_545  A
C370        C371   1.417       .  A
C370       C1028   1.404       .  A
C370        H375   1.084       .  S
C371       C1032   1.439       .  A
C371       Br379   1.921       .  S
C372        C373   1.428       .  A
C372       C1031   1.437       .  A
C372        C840   1.582       .  S
C373        C374   1.401       .  A
C373        H376   1.083       .  S
C374       Br380   1.918       .  S
C381        C386   1.420       .  A
C381       C1702   1.440       .  A
C382        C383   1.413       .  A
C382       C1701   1.440       .  A
C382       Br398   1.922       .  S
C383       C1704   1.402       .  A
C383        H387   1.083       .  S
C384        C388   1.522       .  S
C384        C385   1.418       .  A
C384       C1703   1.402       .  A
C385        C386   1.414       .  A
C385       Br397   1.923       .  S
C386        H389   1.083       .  S
C388        C394   1.425       .  A
C388       C1710   1.401       .  A
C390        C391   1.402       .  A
C390       C1708   1.401       .  A
C390        H395   1.082       .  S
C391       C1712   1.426       .  A
C391       Br399   1.924       .  S
C392        C393   1.408       .  A
C392       C1711   1.426       .  A
C393        C394   1.420       .  A
C393        H396   1.083       .  S
C394       Br400   1.919       .  S
C401        C406   1.425       .  A
C401       C1722   1.436       .  A
C402        C403   1.417       .  A
C402       C1721   1.436       .  A
C402       Br418   1.912       .  S
C403       C1724   1.404   1_455  A
C403        H407   1.083       .  S
C404        C408   1.507       .  S
C404        C405   1.403       .  A
C404       C1723   1.404       .  A
C405        C406   1.406       .  A
C405       Br417   1.918       .  S
C406        H409   1.076       .  S
C408        C410   1.414       .  A
C408       C1734   1.406       .  A
C410        C411   1.421       .  A
C410        H415   1.083       .  S
C411        C412   1.415       .  A
C411       Br419   1.916       .  S
C412       C1733   1.413       .  A
C413        C414   1.403       .  A
C413       C1732   1.413       .  A
C413        H416   1.084       .  S
C414       C1728   1.406       .  A
C414       Br420   1.919       .  S
C421        C422   1.418       .  A
C421        C426   1.412       .  A
C422        C423   1.425       .  A
C422       Br438   1.915       .  S
C423        C424   1.416       .  A
C423        H427   1.083       .  S
C424        C428   1.518       .  S
C424        C425   1.412       .  A
C425        C426   1.403       .  A
C425       Br437   1.921       .  S
C426        H429   1.084       .  S
C428        C430   1.397       .  A
C428        C434   1.415       .  A
C430        C431   1.405       .  A
C430        H435   1.084       .  S
C431        C432   1.444       .  A
C431       Br439   1.931       .  S
C432        C433   1.424       .  A
C433        C434   1.421       .  A
C433        H436   1.083       .  S
C434       Br440   1.914       .  S
C441        C442   1.435       .  A
C441        C446   1.428       .  A
C441       C1499   1.609       .  S
C442        C443   1.418       .  A
C442       Br458   1.905       .  S
C443        C444   1.404       .  A
C443        H447   1.083       .  S
C444        C448   1.524       .  S
C444        C445   1.411       .  A
C445        C446   1.414       .  A
C445       Br457   1.920       .  S
C446        H449   1.073       .  S
C448        C450   1.409       .  A
C448        C454   1.422       .  A
C450        C451   1.413       .  A
C450        H455   1.083       .  S
C451        C452   1.417       .  A
C451       Br459   1.921       .  S
C452        C453   1.407       .  A
C453        C454   1.417       .  A
C453        H456   1.083       .  S
C454       Br460   1.916       .  S
C461        C462   1.442       .  A
C461        C466   1.417       .  A
C461        C840   1.598       .  S
C462        C463   1.403       .  A
C462       Br478   1.921       .  S
C463        C464   1.395       .  A
C463        H467   1.084       .  S
C464        C468   1.513       .  S
C464        C465   1.416       .  A
C465        C466   1.417       .  A
C465       Br477   1.917       .  S
C466        H469   1.079       .  S
C468        C470   1.405       .  A
C468        C474   1.421       .  A
C470        C471   1.406       .  A
C470        H475   1.083       .  S
C471        C472   1.415       .  A
C471       Br479   1.920       .  S
C472        C473   1.406       .  A
C473        C474   1.415       .  A
C473        H476   1.083       .  S
C474       Br480   1.919       .  S
C481        C482   1.430       .  A
C481        C486   1.410       .  A
C482        C483   1.407       .  A
C482       Br498   1.927       .  S
C483        C484   1.401       .  A
C483        H487   1.083       .  S
C484        C488   1.522       .  S
C484        C485   1.423       .  A
C485        C486   1.420       .  A
C485       Br497   1.919       .  S
C486        H489   1.083       .  S
C488        C490   1.395       .  A
C488        C494   1.412       .  A
C490        C491   1.412       .  A
C490        H495   1.084       .  S
C491        C492   1.454       .  A
C491       Br499   1.923       .  S
C492        C493   1.425       .  A
C493        C494   1.415       .  A
C493        H496   1.083       .  S
C494       Br500   1.917       .  S
C501        C502   1.421       .  A
C501        C506   1.408       .  A
C502        C503   1.395       .  A
C502       Br518   1.925       .  S
C503        C504   1.397       .  A
C503        H507   1.084       .  S
C504        C508   1.462       .  S
C504        C505   1.401       .  A
C505        C506   1.389       .  A
C505       Br517   1.919       .  S
C506        H509   1.083       .  S
C508        C510   1.401       .  A
C508        C514   1.405       .  A
C510        C511   1.394       .  A
C510        H515   1.084       .  S
C511        C512   1.405       .  A
C511       Br519   1.918       .  S
C512        C513   1.402       .  A
C513        C514   1.393       .  A
C513        H516   1.084       .  S
C514       Br520   1.919       .  S
C521        C522   1.421       .  A
C521        C526   1.410       .  A
C522        C523   1.397       .  A
C522       Br538   1.925       .  S
C523        C524   1.397       .  A
C523        H527   1.084       .  S
C524        C528   1.466       .  S
C524        C525   1.402       .  A
C525        C526   1.392       .  A
C525       Br537   1.919       .  S
C526        H529   1.083       .  S
C528        C530   1.403       .  A
C528        C534   1.404       .  A
C530        C531   1.398       .  A
C530        H535   1.083       .  S
C531        C532   1.405       .  A
C531       Br539   1.917       .  S
C532        C533   1.402       .  A
C533        C534   1.393       .  A
C533        H536   1.084       .  S
C534       Br540   1.920       .  S
C541        C542   1.417       .  A
C541        C546   1.406       .  A
C542        C543   1.396       .  A
C542       Br558   1.924       .  S
C543        C544   1.401       .  A
C543        H547   1.083       .  S
C544        C548   1.472       .  S
C544        C545   1.407       .  A
C545        C546   1.390       .  A
C545       Br557   1.922       .  S
C546        H549   1.083       .  S
C548        C550   1.405       .  A
C548        C554   1.409       .  A
C550        C551   1.393       .  A
C550        H555   1.084       .  S
C551        C552   1.403       .  A
C551       Br559   1.917       .  S
C552        C553   1.401       .  A
C553        C554   1.393       .  A
C553        H556   1.084       .  S
C554       Br560   1.920       .  S
C561        C562   1.410       .  A
C561        C566   1.403       .  A
C562        C563   1.400       .  A
C562       Br578   1.919       .  S
C563        C564   1.402       .  A
C563        H567   1.083       .  S
C564        C568   1.470       .  S
C564        C565   1.405       .  A
C565        C566   1.393       .  A
C565       Br577   1.919       .  S
C566        H569   1.084       .  S
C568        C570   1.401       .  A
C568        C574   1.404       .  A
C570        C571   1.399       .  A
C570        H575   1.084       .  S
C571        C572   1.413       .  A
C571       Br579   1.923       .  S
C572        C573   1.405       .  A
C573        C574   1.395       .  A
C573        H576   1.084       .  S
C574       Br580   1.919       .  S
C581        C582   1.409       .  A
C581        C586   1.407       .  A
C582        C583   1.408       .  A
C582       Br598   1.914       .  S
C583        C584   1.411       .  A
C583        H587   1.083       .  S
C584        C588   1.498       .  S
C584        C585   1.410       .  A
C585        C586   1.402       .  A
C585       Br597   1.919       .  S
C586        H589   1.084       .  S
C588        C590   1.390       .  A
C588        C594   1.412       .  A
C590        C591   1.397       .  A
C590        H595   1.084       .  S
C591        C592   1.444       .  A
C591       Br599   1.926       .  S
C592        C593   1.414       .  A
C592       C1497   1.587       .  S
C593        C594   1.413       .  A
C593        H596   1.078       .  S
C594       Br600   1.917       .  S
C601        C602   1.408       .  A
C601        C606   1.408       .  A
C602        C603   1.410       .  A
C602       Br618   1.919       .  S
C603        C604   1.414       .  A
C603        H607   1.083       .  S
C604        C608   1.525       .  S
C604        C605   1.422       .  A
C605        C606   1.414       .  A
C605       Br617   1.920       .  S
C606        H609   1.083       .  S
C608        C610   1.411       .  A
C608        C614   1.408       .  A
C610        C611   1.423       .  A
C610        H615   1.082       .  S
C611        C612   1.436       .  A
C611       Br619   1.920       .  S
C612        C613   1.428       .  A
C613        C614   1.405       .  A
C613        H616   1.078       .  S
C614       Br620   1.925       .  S
C621        C622   1.411       .  A
C621        C626   1.405       .  A
C622        C623   1.404       .  A
C622       Br638   1.917       .  S
C623        C624   1.405       .  A
C623        H627   1.083       .  S
C624        C628   1.497       .  S
C624        C625   1.413       .  A
C625        C626   1.408       .  A
C625       Br637   1.919       .  S
C626        H629   1.083       .  S
C628        C630   1.403       .  A
C628        C634   1.399       .  A
C630        C631   1.412       .  A
C630        H635   1.084       .  S
C631        C632   1.430       .  A
C631       Br639   1.910       .  S
C632        C633   1.432       .  A
C633        C634   1.398       .  A
C633        H636   1.080       .  S
C634       Br640   1.922       .  S
C641        C642   1.432       .  A
C641        C646   1.424       .  A
C641        C838   1.580   1_545  S
C642        C643   1.417       .  A
C642       Br658   1.922   1_545  S
C643        C644   1.408       .  A
C643        H647   1.083       .  S
C644        C648   1.510       .  S
C644        C645   1.405       .  A
C645        C646   1.404       .  A
C645       Br657   1.919       .  S
C646        H649   1.080       .  S
C648        C650   1.410       .  A
C648        C654   1.414       .  A
C650        C651   1.410       .  A
C650        H655   1.083       .  S
C651        C652   1.409       .  A
C651       Br659   1.917       .  S
C652        C653   1.409       .  A
C653        C654   1.412       .  A
C653        H656   1.084       .  S
C654       Br660   1.918       .  S
O661       Zr697   2.505       .  S
O661        C672   1.305       .  A
O662       Zr696   2.534       .  S
O662        C673   1.311       .  A
O663       Zr669   2.407       .  S
O663        C674   1.282       .  A
O664       Zr669   2.409       .  S
O664        C675   1.287       .  A
O665       Zr699   2.429       .  S
O665        C675   1.287       .  A
O666       Zr698   2.432       .  S
O666        C674   1.290       .  A
O667       Zr669   2.400       .  S
O667        C673   1.284       .  A
O668       Zr669   2.436       .  S
O668        C672   1.290       .  A
Zr669       O670   2.340       .  S
Zr669       O671   2.329       .  S
Zr669       O679   2.328       .  S
Zr669       O677   2.344       .  S
O670       Zr696   2.365       .  S
O670       Zr699   2.336       .  S
O671       Zr697   2.363       .  S
O671       Zr698   2.334       .  S
C672       C1312   1.497       .  S
C673       C1132   1.495       .  S
C674       C1161   1.481       .  S
C675       C1181   1.484       .  S
H676        O677   0.960       .  S
O677       Zr696   2.380       .  S
O677       Zr698   2.338       .  S
H678        O679   0.967       .  S
O679       Zr697   2.353       .  S
O679       Zr699   2.340       .  S
O680       Zr696   2.538       .  S
O680        C703   1.312       .  A
O681       Zr697   2.495       .  S
O681        C704   1.303       .  A
O682       Zr698   2.411       .  S
O682        C705   1.288       .  A
O683       Zr699   2.403       .  S
O683        C706   1.286       .  A
O684       Zr699   2.404       .  S
O684        C707   1.285       .  A
O685       Zr698   2.426       .  S
O685        C708   1.290       .  A
O686       Zr700   2.417       .  S
O686        C709   1.287       .  A
O687       Zr700   2.422       .  S
O687        C710   1.286       .  A
O688       Zr698   2.407       .  S
O688        C709   1.284       .  A
O689       Zr699   2.450       .  S
O689        C710   1.293       .  A
O690       Zr696   2.539       .  S
O690        C705   1.311       .  A
O691       Zr697   2.506       .  S
O691        C708   1.305       .  A
O692       Zr697   2.530       .  S
O692        C707   1.311       .  A
O693       Zr696   2.529       .  S
O693        C706   1.310       .  A
O694       Zr700   2.408       .  S
O694        C703   1.285       .  A
O695       Zr700   2.420       .  S
O695        C704   1.288       .  A
Zr696       O702   2.364       .  S
Zr696       O714   2.375       .  S
Zr697       O701   2.369       .  S
Zr697       O712   2.363       .  S
Zr698       O702   2.337       .  S
Zr698       O712   2.333       .  S
Zr699       O701   2.334       .  S
Zr699       O714   2.336       .  S
Zr700       O701   2.336       .  S
Zr700       O702   2.334       .  S
Zr700       O714   2.338       .  S
Zr700       O712   2.331       .  S
C703       C1141   1.517       .  S
C704       C1281   1.485       .  S
C705       C1081   1.520       .  S
C706       C1112   1.500       .  S
C707       C1241   1.496       .  S
C708       C1261   1.492       .  S
C709       C1232   1.466       .  S
C710       C1201   1.492       .  S
H711        O712   0.960       .  S
H713        O714   0.960       .  S
N715        C720   1.350       .  A
N715       C2039   1.351       .  A
N715        H747   1.039       .  S
N716        C724   1.348       .  A
N717        C722   1.351       .  A
N717       C2041   1.354       .  A
N717        H748   1.038       .  S
N718        C726   1.349       .  A
C719       N2035   1.351       .  A
C719        C727   1.388       .  A
C719        C735   1.412       .  A
C720        C736   1.408       .  A
C720        C728   1.387       .  A
C721       N2037   1.354       .  A
C721        C729   1.387       .  A
C721        C738   1.414       .  A
C722        C737   1.413       .  A
C722        C730   1.388       .  A
C723        C735   1.406       .  A
C723        C731   1.385       .  A
C724        C738   1.408       .  A
C724        C732   1.387       .  A
C725        C733   1.387       .  A
C725        C736   1.406       .  A
C726        C734   1.386       .  A
C726        C737   1.408       .  A
C727       C2048   1.372       .  A
C727        H739   1.082       .  S
C728       C2047   1.372       .  A
C728        H740   1.082       .  S
C729       C2050   1.374   1_455  A
C729        H741   1.082       .  S
C730       C2049   1.374       .  A
C730        H742   1.082       .  S
C731        H743   1.082       .  S
C732        H744   1.082       .  S
C733        H745   1.083       .  S
C734        H746   1.082       .  S
C735       C1212   1.477       .  S
C736       C1221   1.470       .  S
C737       C1172   1.474       .  S
C738       C1192   1.480       .  S
O749        C760   1.307       .  A
O750       Zr784   2.501       .  S
O750        C761   1.305       .  A
O751      Zr2077   2.435   1_556  S
O751        C762   1.290   1_556  A
O752       Zr757   2.417       .  S
O752        C763   1.286       .  A
O753       Zr787   2.441       .  S
O753        C763   1.291       .  A
O754       Zr786   2.406       .  S
O754        C762   1.285       .  A
O755       Zr757   2.408       .  S
O755        C761   1.286       .  A
O756       Zr757   2.402   1_556  S
O756        C760   1.286       .  A
Zr757      O2071   2.435   1_554  S
Zr757       O758   2.336       .  S
Zr757      O2079   2.332   1_554  S
Zr757       O767   2.346   1_554  S
Zr757      O2085   2.330       .  S
O758       Zr784   2.356       .  S
O758       Zr787   2.324       .  S
O759      Zr2077   2.332   1_556  S
O759      Zr1445   2.374   1_455  S
O759       Zr786   2.337   1_556  S
C760       C1072   1.490       .  S
C761        C881   1.487       .  S
C762        C921   1.472       .  S
C763        C941   1.475       .  S
H764        O765   0.972       .  S
O765      Zr2077   2.330       .  S
O765      Zr2104   2.367       .  S
O765       Zr786   2.337       .  S
H766        O767   0.968       .  S
O767       Zr787   2.330   1_556  S
O768        C791   1.304       .  A
O769       Zr785   2.541       .  S
O769        C792   1.312       .  A
O770       Zr786   2.427       .  S
O770        C793   1.290       .  A
O771       Zr787   2.404       .  S
O771        C794   1.285       .  A
O772        C795   1.289       .  A
O773        C796   1.288       .  A
O774      Zr2108   2.424   1_455  S
O774        C797   1.287       .  A
O775       Zr788   2.410       .  S
O775        C798   1.284       .  A
O776        C797   1.283   1_556  A
O777        C798   1.290       .  A
O778      Zr2104   2.505       .  S
O778        C793   1.306       .  A
O779      Zr2105   2.507   1_455  S
O779        C796   1.306       .  A
O780       Zr785   2.531       .  S
O780        C795   1.310       .  A
O781       Zr784   2.528       .  S
O781        C794   1.309       .  A
O782       Zr788   2.417       .  S
O782        C791   1.288       .  A
O783       Zr788   2.404   1_556  S
O783        C792   1.285       .  A
Zr784      O2098   2.505       .  S
Zr784      O2085   2.367       .  S
Zr784      O1450   2.366   1_565  S
Zr785      O2099   2.507       .  S
Zr785      O1419   2.379       .  S
Zr785       O789   2.363       .  S
Zr785      O2120   2.367       .  S
Zr788      O2094   2.424       .  S
Zr788       O789   2.343   1_554  S
Zr788      O2110   2.324       .  S
Zr788       O802   2.331       .  S
Zr788      O2120   2.324   1_554  S
O790      Zr1444   2.363       .  S
O790      Zr2108   2.324   1_455  S
C791        C901   1.491       .  S
C792       C1052   1.517       .  S
C793        C841   1.492       .  S
C794        C861   1.495       .  S
C795       C1012   1.519       .  S
C796       C1021   1.487       .  S
C797        C981   1.471       .  S
C798        C961   1.472       .  S
H799        O800   0.968       .  S
O800      Zr2105   2.367   1_455  S
O800      Zr2108   2.324   1_456  S
H801        O802   0.963       .  S
N803        C808   1.351       .  A
N803        C807   1.355       .  A
N803        H835   1.038       .  S
N804        C811   1.348       .  A
N804        C812   1.347       .  A
N805        C810   1.350       .  A
N805        C809   1.349       .  A
N805        H836   1.039       .  S
N806        C813   1.349       .  A
N806        C814   1.352       .  A
C807        C815   1.387       .  A
C807        C823   1.414       .  A
C808        C824   1.414       .  A
C808        C816   1.388       .  A
C809        C817   1.388       .  A
C809        C826   1.408       .  A
C810        C825   1.406       .  A
C810        C818   1.387       .  A
C811        C823   1.406       .  A
C811        C819   1.385       .  A
C812        C826   1.407       .  A
C812        C820   1.388       .  A
C813        C821   1.389       .  A
C813        C824   1.412       .  A
C814        C822   1.384       .  A
C814        C825   1.408       .  A
C815        C816   1.372       .  A
C815        H827   1.082       .  S
C816        H828   1.082       .  S
C817        C818   1.369       .  A
C817        H829   1.082       .  S
C818        H830   1.082       .  S
C819        C820   1.370       .  A
C819        H831   1.082       .  S
C820        H832   1.083       .  S
C821        C822   1.371       .  A
C821        H833   1.082       .  S
C822        H834   1.082       .  S
C823        C952   1.480       .  S
C824        C932   1.475       .  S
C825        C992   1.476       .  S
C826        C972   1.466       .  S
C837        C892   1.584       .  S
C837        C912   1.601       .  S
C837       C2572   1.589       .  S
C837       C1272   1.602       .  S
C838        C852   1.594       .  S
C838        C872   1.592   1_565  S
C838       C1292   1.595       .  S
C839       C1041   1.592       .  S
C839       C1061   1.610       .  S
C839       C1092   1.610       .  S
C839       C2421   1.605       .  S
C840       C1152   1.608   1_545  S
C841        C842   1.410       .  A
C842        C843   1.408       .  A
C842       Br858   1.915       .  S
C843        C844   1.409   1_565  A
C843        H847   1.083       .  S
C844        C848   1.506       .  S
C845        C846   1.413       .  A
C845       Br857   1.918       .  S
C846        H849   1.084       .  S
C848        C854   1.400   1_545  A
C850        C851   1.423       .  A
C850        H855   1.083       .  S
C851       Br859   1.919       .  S
C852        C853   1.424       .  A
C853        C854   1.397       .  A
C853        H856   1.076       .  S
C854       Br860   1.922       .  S
C861        C862   1.413       .  A
C862        C863   1.415       .  A
C862       Br878   1.914       .  S
C863        C864   1.410       .  A
C863        H867   1.083       .  S
C864        C868   1.504       .  S
C865        C866   1.402       .  A
C865       Br877   1.918       .  S
C866        H869   1.084       .  S
C868        C874   1.407       .  A
C870        C871   1.406       .  A
C870        H875   1.085       .  S
C871       Br879   1.934       .  S
C872        C873   1.427   1_545  A
C873        C874   1.415       .  A
C873        H876   1.082       .  S
C874       Br880   1.918       .  S
C881       C2202   1.414       .  A
C881        C886   1.403       .  A
C882       C2201   1.414       .  A
C882        C883   1.404       .  A
C882       Br898   1.919       .  S
C883       C2204   1.402       .  A
C883        H887   1.083       .  S
C884        C888   1.499       .  S
C884       C2203   1.402       .  A
C884        C885   1.417       .  A
C885        C886   1.408       .  A
C885       Br897   1.919       .  S
C886        H889   1.082       .  S
C888       C2210   1.391       .  A
C888        C894   1.413       .  A
C890       C2208   1.391       .  A
C890        C891   1.396       .  A
C890        H895   1.084       .  S
C891       C2212   1.440       .  A
C891       Br899   1.925       .  S
C892       C2211   1.440       .  A
C892        C893   1.417       .  A
C893        C894   1.416       .  A
C893        H896   1.079       .  S
C894       Br900   1.916       .  S
C901       C2222   1.415       .  A
C901        C906   1.406       .  A
C902       C2221   1.415       .  A
C902        C903   1.401       .  A
C902       Br918   1.916       .  S
C903        C904   1.402       .  A
C903        H907   1.084       .  S
C904        C908   1.497       .  S
C904       C2225   1.413   1_455  A
C905       C2224   1.413       .  A
C905        C906   1.412       .  A
C905       Br917   1.915       .  S
C906        H909   1.083       .  S
C908       C2230   1.405   1_455  A
C908        C914   1.395       .  A
C910       C2228   1.405       .  A
C910        C911   1.419       .  A
C910        H915   1.083       .  S
C911        C912   1.435       .  A
C911       Br919   1.920       .  S
C912       C2233   1.434       .  A
C913       C2232   1.434       .  A
C913        C914   1.395       .  A
C913        H916   1.077       .  S
C914       Br920   1.923       .  S
C921        C922   1.410   1_554  A
C921        C926   1.408       .  A
C922        C923   1.395   1_556  A
C922       Br938   1.922       .  S
C923        C924   1.403       .  A
C923        H927   1.084   1_554  S
C924        C928   1.470       .  S
C924        C925   1.405       .  A
C925        C926   1.393       .  A
C925       Br937   1.921       .  S
C926        H929   1.084       .  S
C928        C930   1.399       .  A
C928        C934   1.412       .  A
C930        C931   1.389       .  A
C930        H935   1.084   1_554  S
C931        C932   1.405       .  A
C931       Br939   1.919   1_554  S
C932        C933   1.402       .  A
C933        C934   1.398       .  A
C933        H936   1.083       .  S
C934       Br940   1.922       .  S
C941        C942   1.410       .  A
C941        C946   1.409       .  A
C942        C943   1.395       .  A
C942       Br958   1.921   1_554  S
C943        C944   1.401       .  A
C943        H947   1.084       .  S
C944        C948   1.472       .  S
C944        C945   1.406       .  A
C945        C946   1.399       .  A
C945       Br957   1.920       .  S
C946        H949   1.084       .  S
C948        C950   1.400       .  A
C948        C954   1.411       .  A
C950        C951   1.393       .  A
C950        H955   1.084   1_554  S
C951        C952   1.408       .  A
C951       Br959   1.920   1_554  S
C952        C953   1.401       .  A
C953        C954   1.400       .  A
C953        H956   1.083       .  S
C954       Br960   1.921       .  S
C961        C962   1.418       .  A
C961        C966   1.406       .  A
C962        C963   1.390       .  A
C962       Br978   1.923       .  S
C963        C964   1.395       .  A
C963        H967   1.084       .  S
C964        C968   1.458       .  S
C964        C965   1.403       .  A
C965        C966   1.394       .  A
C965       Br977   1.919   1_554  S
C966        H969   1.084   1_554  S
C968        C970   1.398       .  A
C968        C974   1.408       .  A
C970        C971   1.388       .  A
C970        H975   1.084   1_554  S
C971        C972   1.405       .  A
C971       Br979   1.920   1_554  S
C972        C973   1.399       .  A
C973        C974   1.394       .  A
C973        H976   1.084       .  S
C974       Br980   1.917       .  S
C981        C982   1.412   1_554  A
C981        C986   1.406       .  A
C982        C983   1.395   1_556  A
C982       Br998   1.923       .  S
C983        C984   1.402       .  A
C983        H987   1.083   1_554  S
C984        C988   1.471       .  S
C984        C985   1.406       .  A
C985        C986   1.389       .  A
C985       Br997   1.920       .  S
C986        H989   1.084       .  S
C988        C990   1.403       .  A
C988        C994   1.409   1_554  A
C990        C991   1.393       .  A
C990        H995   1.084       .  S
C991        C992   1.406       .  A
C991       Br999   1.918       .  S
C992        C993   1.401       .  A
C993        C994   1.396   1_554  A
C993        H996   1.083   1_554  S
C994      Br1000   1.920       .  S
C1001      C1006   1.432       .  A
C1002      C1003   1.416       .  A
C1002     Br1018   1.924       .  S
C1003      H1007   1.083       .  S
C1004      C1008   1.508       .  S
C1004      C1005   1.399       .  A
C1005      C1006   1.403       .  A
C1005     Br1017   1.921       .  S
C1006      H1009   1.073       .  S
C1008      C1010   1.413       .  A
C1010      C1011   1.421       .  A
C1010      H1015   1.083       .  S
C1011      C1012   1.418       .  A
C1011     Br1019   1.917       .  S
C1013      C1014   1.401       .  A
C1013      H1016   1.083       .  S
C1014     Br1020   1.921       .  S
C1021      C1022   1.414       .  A
C1022      C1023   1.414       .  A
C1022     Br1038   1.921       .  S
C1023      C1024   1.410       .  A
C1023      H1027   1.083       .  S
C1024      C1028   1.505       .  S
C1025      C1026   1.409       .  A
C1025     Br1037   1.919       .  S
C1026      H1029   1.084       .  S
C1028      C1034   1.402       .  A
C1030      C1031   1.415   1_565  A
C1030      H1035   1.084       .  S
C1031     Br1039   1.923   1_545  S
C1032      C1033   1.430       .  A
C1033      C1034   1.407       .  A
C1033      H1036   1.083       .  S
C1034     Br1040   1.918       .  S
C1041      C2362   1.440       .  A
C1041      C1046   1.421       .  A
C1042      C2361   1.440       .  A
C1042      C1043   1.412       .  A
C1042     Br1058   1.922       .  S
C1043      C2364   1.402       .  A
C1043      H1047   1.084       .  S
C1044      C1048   1.522       .  S
C1044      C2363   1.402       .  A
C1044      C1045   1.417       .  A
C1045      C1046   1.414       .  A
C1045     Br1057   1.920       .  S
C1046      H1049   1.083       .  S
C1048      C2370   1.402       .  A
C1048      C1054   1.424       .  A
C1050      C2368   1.402       .  A
C1050      C1051   1.403       .  A
C1050      H1055   1.082       .  S
C1051      C2372   1.425       .  A
C1051     Br1059   1.925       .  S
C1052      C2371   1.425       .  A
C1052      C1053   1.409       .  A
C1053      C1054   1.421       .  A
C1053      H1056   1.083       .  S
C1054     Br1060   1.918       .  S
C1061      C2382   1.437       .  A
C1061      C1066   1.424       .  A
C1062      C2381   1.437       .  A
C1062      C1063   1.415       .  A
C1062     Br1078   1.914       .  S
C1063      C2384   1.402       .  A
C1063      H1067   1.084       .  S
C1064      C1068   1.502       .  S
C1064      C2383   1.402       .  A
C1064      C1065   1.402       .  A
C1065      C1066   1.403       .  A
C1065     Br1077   1.920       .  S
C1066      H1069   1.075       .  S
C1068      C1070   1.412       .  A
C1068      C2394   1.410       .  A
C1070      C1071   1.415       .  A
C1070      H1075   1.083       .  S
C1071      C1072   1.409       .  A
C1071     Br1079   1.917       .  S
C1072      C2393   1.408       .  A
C1073      C2392   1.408       .  A
C1073      C1074   1.400       .  A
C1073      H1076   1.084       .  S
C1074      C2388   1.410       .  A
C1074     Br1080   1.919       .  S
C1081      C1082   1.420       .  A
C1081      C1086   1.415       .  A
C1082      C1083   1.426       .  A
C1082     Br1098   1.917       .  S
C1083      C1084   1.416       .  A
C1083      H1087   1.083       .  S
C1084      C1088   1.511       .  S
C1084      C1085   1.404       .  A
C1085      C1086   1.399       .  A
C1085     Br1097   1.918       .  S
C1086      H1089   1.083       .  S
C1088      C1090   1.396       .  A
C1088      C1094   1.411       .  A
C1090      C1091   1.407       .  A
C1090      H1095   1.084       .  S
C1091      C1092   1.442       .  A
C1091     Br1099   1.929       .  S
C1092      C1093   1.427       .  A
C1093      C1094   1.423       .  A
C1093      H1096   1.083       .  S
C1094     Br1100   1.916       .  S
C1101      C1102   1.436       .  A
C1101      C1106   1.427       .  A
C1101      C2159   1.605       .  S
C1102      C1103   1.418       .  A
C1102     Br1118   1.905       .  S
C1103      C1104   1.402       .  A
C1103      H1107   1.083       .  S
C1104      C1108   1.510       .  S
C1104      C1105   1.405       .  A
C1105      C1106   1.409       .  A
C1105     Br1117   1.922       .  S
C1106      H1109   1.074       .  S
C1108      C1110   1.402       .  A
C1108      C1114   1.419       .  A
C1110      C1111   1.402       .  A
C1110      H1115   1.083       .  S
C1111      C1112   1.418       .  A
C1111     Br1119   1.921       .  S
C1112      C1113   1.408       .  A
C1113      C1114   1.417       .  A
C1113      H1116   1.083       .  S
C1114     Br1120   1.915       .  S
C1121      C1122   1.443       .  A
C1121      C1126   1.422       .  A
C1122      C1123   1.403       .  A
C1122     Br1138   1.922       .  S
C1123      C1124   1.393       .  A
C1123      H1127   1.084       .  S
C1124      C1128   1.511       .  S
C1124      C1125   1.414       .  A
C1125      C1126   1.421       .  A
C1125     Br1137   1.918       .  S
C1126      H1129   1.078       .  S
C1128      C1130   1.407       .  A
C1128      C1134   1.416       .  A
C1130      C1131   1.410       .  A
C1130      H1135   1.083       .  S
C1131      C1132   1.415       .  A
C1131     Br1139   1.920       .  S
C1132      C1133   1.407       .  A
C1133      C1134   1.413       .  A
C1133      H1136   1.084       .  S
C1134     Br1140   1.919       .  S
C1141      C1142   1.427       .  A
C1141      C1146   1.407       .  A
C1142      C1143   1.404       .  A
C1142     Br1158   1.924       .  S
C1143      C1144   1.400       .  A
C1143      H1147   1.082       .  S
C1144      C1148   1.521       .  S
C1144      C1145   1.426       .  A
C1145      C1146   1.418       .  A
C1145     Br1157   1.920       .  S
C1146      H1149   1.083       .  S
C1148      C1150   1.393       .  A
C1148      C1154   1.416       .  A
C1150      C1151   1.408       .  A
C1150      H1155   1.084       .  S
C1151      C1152   1.452       .  A
C1151     Br1159   1.924       .  S
C1152      C1153   1.426       .  A
C1153      C1154   1.417       .  A
C1153      H1156   1.083       .  S
C1154     Br1160   1.920       .  S
C1161      C1162   1.423       .  A
C1161      C1166   1.407       .  A
C1162      C1163   1.394       .  A
C1162     Br1178   1.926       .  S
C1163      C1164   1.394       .  A
C1163      H1167   1.084       .  S
C1164      C1168   1.463       .  S
C1164      C1165   1.403       .  A
C1165      C1166   1.394       .  A
C1165     Br1177   1.919       .  S
C1166      H1169   1.083       .  S
C1168      C1170   1.401       .  A
C1168      C1174   1.404       .  A
C1170      C1171   1.395       .  A
C1170      H1175   1.084       .  S
C1171      C1172   1.405       .  A
C1171     Br1179   1.917       .  S
C1172      C1173   1.402       .  A
C1173      C1174   1.393       .  A
C1173      H1176   1.084       .  S
C1174     Br1180   1.918       .  S
C1181      C1182   1.420       .  A
C1181      C1186   1.412       .  A
C1182      C1183   1.395       .  A
C1182     Br1198   1.925       .  S
C1183      C1184   1.396       .  A
C1183      H1187   1.084       .  S
C1184      C1188   1.465       .  S
C1184      C1185   1.402       .  A
C1185      C1186   1.394       .  A
C1185     Br1197   1.920       .  S
C1186      H1189   1.083       .  S
C1188      C1190   1.402       .  A
C1188      C1194   1.403       .  A
C1190      C1191   1.397       .  A
C1190      H1195   1.084       .  S
C1191      C1192   1.406       .  A
C1191     Br1199   1.918       .  S
C1192      C1193   1.404       .  A
C1193      C1194   1.395       .  A
C1193      H1196   1.083       .  S
C1194     Br1200   1.920       .  S
C1201      C1202   1.421       .  A
C1201      C1206   1.407       .  A
C1202      C1203   1.401       .  A
C1202     Br1218   1.923       .  S
C1203      C1204   1.401       .  A
C1203      H1207   1.084       .  S
C1204      C1208   1.479       .  S
C1204      C1205   1.406       .  A
C1205      C1206   1.396       .  A
C1205     Br1217   1.921       .  S
C1206      H1209   1.083       .  S
C1208      C1210   1.406       .  A
C1208      C1214   1.409       .  A
C1210      C1211   1.398       .  A
C1210      H1215   1.083       .  S
C1211      C1212   1.404       .  A
C1211     Br1219   1.918       .  S
C1212      C1213   1.401       .  A
C1213      C1214   1.396       .  A
C1213      H1216   1.084       .  S
C1214     Br1220   1.918       .  S
C1221      C1222   1.405       .  A
C1221      C1226   1.401       .  A
C1222      C1223   1.393       .  A
C1222     Br1238   1.917       .  S
C1223      C1224   1.400       .  A
C1223      H1227   1.084       .  S
C1224      C1228   1.456       .  S
C1224      C1225   1.404       .  A
C1225      C1226   1.390       .  A
C1225     Br1237   1.923       .  S
C1226      H1229   1.083       .  S
C1228      C1230   1.397       .  A
C1228      C1234   1.403       .  A
C1230      C1231   1.391       .  A
C1230      H1235   1.084       .  S
C1231      C1232   1.414       .  A
C1231     Br1239   1.923       .  S
C1232      C1233   1.405       .  A
C1233      C1234   1.388       .  A
C1233      H1236   1.084       .  S
C1234     Br1240   1.921       .  S
C1241      C1242   1.407       .  A
C1241      C1246   1.411       .  A
C1242      C1243   1.412       .  A
C1242     Br1258   1.916       .  S
C1243      C1244   1.415       .  A
C1243      H1247   1.083       .  S
C1244      C1248   1.514       .  S
C1244      C1245   1.416       .  A
C1245      C1246   1.410       .  A
C1245     Br1257   1.919       .  S
C1246      H1249   1.084       .  S
C1248      C1250   1.395       .  A
C1248      C1254   1.420       .  A
C1250      C1251   1.399       .  A
C1250      H1255   1.084       .  S
C1251      C1252   1.439       .  A
C1251     Br1259   1.927       .  S
C1252      C1253   1.417       .  A
C1252      C2157   1.589       .  S
C1253      C1254   1.420       .  A
C1253      H1256   1.080       .  S
C1254     Br1260   1.916       .  S
C1261      C1262   1.411       .  A
C1261      C1266   1.405       .  A
C1262      C1263   1.404       .  A
C1262     Br1278   1.916       .  S
C1263      C1264   1.406       .  A
C1263      H1267   1.083       .  S
C1264      C1268   1.506       .  S
C1264      C1265   1.416       .  A
C1265      C1266   1.412       .  A
C1265     Br1277   1.917       .  S
C1266      H1269   1.082       .  S
C1268      C1270   1.407       .  A
C1268      C1274   1.400       .  A
C1270      C1271   1.418       .  A
C1270      H1275   1.083       .  S
C1271      C1272   1.432       .  A
C1271     Br1279   1.918       .  S
C1272      C1273   1.435       .  A
C1273      C1274   1.399       .  A
C1273      H1276   1.077       .  S
C1274     Br1280   1.925       .  S
C1281      C1282   1.409       .  A
C1281      C1286   1.408       .  A
C1282      C1283   1.397       .  A
C1282     Br1298   1.913       .  S
C1283      C1284   1.400       .  A
C1283      H1287   1.084       .  S
C1284      C1288   1.494       .  S
C1284      C1285   1.415       .  A
C1285      C1286   1.414       .  A
C1285     Br1297   1.916       .  S
C1286      H1289   1.083       .  S
C1288      C1290   1.401       .  A
C1288      C1294   1.398       .  A
C1290      C1291   1.414       .  A
C1290      H1295   1.084       .  S
C1291      C1292   1.435       .  A
C1291     Br1299   1.912       .  S
C1292      C1293   1.430       .  A
C1293      C1294   1.399       .  A
C1293      H1296   1.080       .  S
C1294     Br1300   1.921       .  S
C1301      C1302   1.433       .  A
C1301      C1306   1.425       .  A
C1302      C1303   1.418       .  A
C1302     Br1318   1.923       .  S
C1303      C1304   1.408       .  A
C1303      H1307   1.083       .  S
C1304      C1308   1.505       .  S
C1304      C1305   1.402       .  A
C1305      C1306   1.401       .  A
C1305     Br1317   1.919       .  S
C1306      H1309   1.080       .  S
C1308      C1310   1.409       .  A
C1308      C1314   1.411       .  A
C1310      C1311   1.411       .  A
C1310      H1315   1.083       .  S
C1311      C1312   1.412       .  A
C1311     Br1319   1.917       .  S
C1312      C1313   1.408       .  A
C1313      C1314   1.410       .  A
C1313      H1316   1.083       .  S
C1314     Br1320   1.918       .  S
O1321     Zr1357   2.508       .  S
O1321      C1332   1.306       .  A
O1322     Zr1356   2.522       .  S
O1322      C1333   1.309       .  A
O1323     Zr1329   2.410       .  S
O1323      C1334   1.283       .  A
O1324     Zr1329   2.418       .  S
O1324      C1335   1.288       .  A
O1325     Zr1359   2.421       .  S
O1325      C1335   1.285       .  A
O1326     Zr1358   2.419       .  S
O1326      C1334   1.288       .  A
O1327     Zr1329   2.416       .  S
O1327      C1333   1.288       .  A
O1328     Zr1329   2.434       .  S
O1328      C1332   1.290       .  A
Zr1329     O1330   2.340       .  S
Zr1329     O1331   2.336       .  S
Zr1329     O1339   2.330       .  S
Zr1329     O1337   2.348       .  S
O1330     Zr1356   2.377       .  S
O1330     Zr1359   2.339       .  S
O1331     Zr1357   2.355       .  S
O1331     Zr1358   2.328       .  S
C1332      C1972   1.497       .  S
C1333      C1792   1.497       .  S
C1334      C1821   1.478       .  S
C1335      C1841   1.484       .  S
H1336      O1337   0.960       .  S
O1337     Zr1356   2.380       .  S
O1337     Zr1358   2.343       .  S
H1338      O1339   0.966       .  S
O1339     Zr1357   2.357       .  S
O1339     Zr1359   2.330       .  S
O1340     Zr1356   2.542       .  S
O1340      C1363   1.313       .  A
O1341     Zr1357   2.505       .  S
O1341      C1364   1.305       .  A
O1342     Zr1358   2.407       .  S
O1342      C1365   1.288       .  A
O1343     Zr1359   2.420       .  S
O1343      C1366   1.289       .  A
O1344     Zr1359   2.429       .  S
O1344      C1367   1.290       .  A
O1345     Zr1358   2.422       .  S
O1345      C1368   1.287       .  A
O1346     Zr1360   2.433       .  S
O1346      C1369   1.290       .  A
O1347     Zr1360   2.418       .  S
O1347      C1370   1.285       .  A
O1348     Zr1358   2.423       .  S
O1348      C1369   1.287       .  A
O1349     Zr1359   2.416       .  S
O1349      C1370   1.288       .  A
O1350     Zr1356   2.547       .  S
O1350      C1365   1.313       .  A
O1351     Zr1357   2.514       .  S
O1351      C1368   1.307       .  A
O1352     Zr1357   2.491       .  S
O1352      C1367   1.302       .  A
O1353     Zr1356   2.538       .  S
O1353      C1366   1.312       .  A
O1354     Zr1360   2.414       .  S
O1354      C1363   1.286       .  A
O1355     Zr1360   2.408       .  S
O1355      C1364   1.286       .  A
Zr1356     O1362   2.370       .  S
Zr1356     O1374   2.366       .  S
Zr1357     O1361   2.364       .  S
Zr1357     O1372   2.353       .  S
Zr1358     O1362   2.341       .  S
Zr1358     O1372   2.331       .  S
Zr1359     O1361   2.335       .  S
Zr1359     O1374   2.341       .  S
Zr1360     O1361   2.338       .  S
Zr1360     O1362   2.333       .  S
Zr1360     O1374   2.340       .  S
Zr1360     O1372   2.336       .  S
C1363      C1801   1.523       .  S
C1364      C1941   1.484       .  S
C1365      C1741   1.518       .  S
C1366      C1772   1.508       .  S
C1367      C1901   1.488       .  S
C1368      C1921   1.496       .  S
C1369      C1892   1.473       .  S
C1370      C1861   1.478       .  S
H1371      O1372   0.960       .  S
H1373      O1374   0.960       .  S
N1375      C1380   1.353   1_455  A
N1375      H1407   1.040       .  S
N1376      C2043   1.348   1_545  A
N1376      C1384   1.348       .  A
N1377      C1382   1.350   1_455  A
N1377      H1408   1.040       .  S
N1378      C2045   1.348       .  A
N1378      C1386   1.347   1_565  A
C1379      C1387   1.388       .  A
C1379      C1395   1.412       .  A
C1380      C1396   1.411       .  A
C1380      C1388   1.386   1_655  A
C1381      C1389   1.387       .  A
C1381      C1398   1.411       .  A
C1382      C1397   1.411       .  A
C1382      C1390   1.388       .  A
C1383      N2036   1.347       .  A
C1383      C1395   1.405       .  A
C1383      C1391   1.386       .  A
C1384      C1398   1.407       .  A
C1384      C1392   1.386       .  A
C1385      N2038   1.350       .  A
C1385      C1393   1.386       .  A
C1385      C1396   1.410       .  A
C1386      C1394   1.386       .  A
C1386      C1397   1.406       .  A
C1387      H1399   1.082       .  S
C1388      H1400   1.082   1_455  S
C1389      H1401   1.082       .  S
C1390      H1402   1.083       .  S
C1391      C2052   1.371       .  A
C1391      H1403   1.083       .  S
C1392      C2051   1.372   1_545  A
C1392      H1404   1.082       .  S
C1393      C2054   1.371       .  A
C1393      H1405   1.082       .  S
C1394      C2053   1.372   1_545  A
C1394      H1406   1.083       .  S
C1395      C1872   1.473       .  S
C1396      C1881   1.484       .  S
C1397      C1832   1.472       .  S
C1398      C1852   1.477       .  S
O1409     Zr2105   2.537       .  S
O1409      C1420   1.312       .  A
O1410     Zr1444   2.508       .  S
O1410      C1421   1.306       .  A
O1411      C1422   1.289       .  A
O1412     Zr1417   2.408   1_655  S
O1412      C1423   1.286       .  A
O1413     Zr1447   2.430       .  S
O1413      C1423   1.288       .  A
O1414     Zr1446   2.396   1_556  S
O1414      C1422   1.284       .  A
O1415     Zr1417   2.427       .  S
O1415      C1421   1.289       .  A
O1416     Zr1417   2.411   1_556  S
O1416      C1420   1.288   1_455  A
Zr1417     O1418   2.332   1_455  S
Zr1417     O1427   2.355   1_454  S
O1418     Zr1444   2.355   1_655  S
O1418     Zr1447   2.334       .  S
O1419     Zr1446   2.338   1_556  S
C1420      C1732   1.510       .  S
C1421      C1541   1.494       .  S
C1422      C1581   1.470       .  S
C1423      C1601   1.476       .  S
H1424      O1425   0.971       .  S
O1425     Zr1446   2.341       .  S
H1426      O1427   0.969       .  S
O1427     Zr2105   2.371       .  S
O1427     Zr1447   2.333   1_556  S
O1428     Zr2104   2.503   1_545  S
O1428      C1451   1.304       .  A
O1429     Zr1445   2.535   1_545  S
O1429      C1452   1.311       .  A
O1430     Zr1446   2.435       .  S
O1430      C1453   1.291       .  A
O1431     Zr1447   2.388       .  S
O1431      C1454   1.283       .  A
O1432     Zr2107   2.405   1_556  S
O1432      C1455   1.287       .  A
O1433     Zr2106   2.423   1_556  S
O1433      C1456   1.288       .  A
O1434      C1457   1.289       .  A
O1435     Zr1448   2.415       .  S
O1435      C1458   1.285       .  A
O1436     Zr2106   2.408   1_545  S
O1436      C1457   1.285       .  A
O1437     Zr2107   2.412   1_545  S
O1437      C1458   1.287       .  A
O1438      C1453   1.309       .  A
O1439      C1456   1.307       .  A
O1440     Zr1445   2.526       .  S
O1440      C1455   1.309       .  A
O1441     Zr1444   2.539   1_655  S
O1441      C1454   1.312       .  A
O1442     Zr1448   2.421       .  S
O1442      C1451   1.289   1_655  A
O1443     Zr1448   2.405   1_556  S
O1443      C1452   1.284       .  A
Zr1444     O2088   2.502       .  S
Zr1444     O2122   2.358   1_455  S
Zr1445     O2069   2.513       .  S
Zr1445     O2087   2.373       .  S
Zr1445     O1449   2.357   1_565  S
Zr1446     O2093   2.418   1_554  S
Zr1446     O2096   2.396   1_554  S
Zr1446     O2110   2.329       .  S
Zr1446     O2120   2.331   1_554  S
Zr1447     O2092   2.416   1_554  S
Zr1447     O2097   2.433       .  S
Zr1447     O2109   2.332   1_554  S
Zr1447     O2122   2.341       .  S
Zr1448     O1449   2.338   1_554  S
Zr1448     O1462   2.336       .  S
O1449     Zr2107   2.342   1_546  S
O1450     Zr2106   2.335   1_545  S
C1451      C1561   1.490       .  S
C1452      C1712   1.515       .  S
C1453      C1501   1.505       .  S
C1454      C1521   1.500       .  S
C1455      C1672   1.508       .  S
C1456      C1681   1.491       .  S
C1457      C1641   1.462       .  S
C1458      C1621   1.470       .  S
H1459      O1460   0.969       .  S
O1460     Zr2106   2.337   1_546  S
H1461      O1462   0.963       .  S
O1462     Zr2104   2.349   1_645  S
O1462     Zr2107   2.340   1_545  S
N1463      C1468   1.350       .  A
N1463      C1467   1.346       .  A
N1463      H1495   1.038       .  S
N1464      C1471   1.347       .  A
N1464      C1472   1.349       .  A
N1465      C1470   1.347       .  A
N1465      C1469   1.349       .  A
N1465      H1496   1.036       .  S
N1466      C1473   1.347       .  A
N1466      C1474   1.345       .  A
C1467      C1475   1.388       .  A
C1467      C1483   1.408       .  A
C1468      C1484   1.406       .  A
C1468      C1476   1.385       .  A
C1469      C1477   1.386       .  A
C1469      C1486   1.406       .  A
C1470      C1485   1.410       .  A
C1470      C1478   1.389       .  A
C1471      C1483   1.407       .  A
C1471      C1479   1.387       .  A
C1472      C1486   1.408       .  A
C1472      C1480   1.386       .  A
C1473      C1481   1.386       .  A
C1473      C1484   1.403       .  A
C1474      C1482   1.387       .  A
C1474      C1485   1.404       .  A
C1475      C1476   1.376       .  A
C1475      H1487   1.082       .  S
C1476      H1488   1.082       .  S
C1477      C1478   1.374       .  A
C1477      H1489   1.083       .  S
C1478      H1490   1.083       .  S
C1479      C1480   1.372       .  A
C1479      H1491   1.082       .  S
C1480      H1492   1.083       .  S
C1481      C1482   1.369       .  A
C1481      H1493   1.082   1_554  S
C1482      H1494   1.082   1_554  S
C1483      C1612   1.468       .  S
C1484      C1592   1.472       .  S
C1485      C1652   1.467       .  S
C1486      C1632   1.471       .  S
C1497      C1552   1.588       .  S
C1497      C1572   1.596       .  S
C1497      C1932   1.603   1_455  S
C1498      C1512   1.595       .  S
C1498      C1532   1.601       .  S
C1498      C1952   1.595       .  S
C1498      C2621   1.579       .  S
C1499      C1701   1.592       .  S
C1499      C1721   1.615       .  S
C1499      C1752   1.609   1_455  S
C1500      C2321   1.608       .  S
C1500      C2352   1.589       .  S
C1500      C2441   1.603       .  S
C1500      C1812   1.611       .  S
C1501      C1502   1.410       .  A
C1501      C2166   1.412       .  A
C1502      C1503   1.411       .  A
C1502     Br1518   1.911       .  S
C1503      C1504   1.411       .  A
C1503      H1507   1.083       .  S
C1504      C1508   1.514       .  S
C1504      C2165   1.413       .  A
C1505      C2164   1.412       .  A
C1505      C1506   1.408       .  A
C1505     Br1517   1.916       .  S
C1506      C2161   1.408   1_545  A
C1506      H1509   1.083       .  S
C1508      C2170   1.415       .  A
C1508      C1514   1.403       .  A
C1510      C2168   1.410       .  A
C1510      C1511   1.421       .  A
C1510      H1515   1.083       .  S
C1511      C2172   1.433   1_545  A
C1511     Br1519   1.920       .  S
C1512      C2171   1.428       .  A
C1512      C1513   1.424       .  A
C1513      C1514   1.396       .  A
C1513      H1516   1.076       .  S
C1514     Br1520   1.923       .  S
C1521      C1522   1.412       .  A
C1521      C2186   1.411       .  A
C1522      C1523   1.419       .  A
C1522     Br1538   1.915       .  S
C1523      C1524   1.413       .  A
C1523      H1527   1.083       .  S
C1524      C1528   1.506       .  S
C1524      C2185   1.408       .  A
C1525      C2184   1.411   1_545  A
C1525      C1526   1.403       .  A
C1525     Br1537   1.922       .  S
C1526      C2181   1.408   1_545  A
C1526      H1529   1.084       .  S
C1528      C2190   1.390       .  A
C1528      C1534   1.407       .  A
C1530      C2188   1.391   1_545  A
C1530      C1531   1.402       .  A
C1530      H1535   1.085       .  S
C1531      C2192   1.449       .  A
C1531     Br1539   1.933       .  S
C1532      C2191   1.453       .  A
C1532      C1533   1.426       .  A
C1533      C1534   1.419       .  A
C1533      H1536   1.082       .  S
C1534     Br1540   1.916       .  S
C1541      C1546   1.406   1_455  A
C1542      C1543   1.406       .  A
C1542     Br1558   1.916       .  S
C1543      H1547   1.083       .  S
C1544      C1548   1.504       .  S
C1544      C1545   1.418   1_455  A
C1545      C1546   1.411       .  A
C1545     Br1557   1.921       .  S
C1546      H1549   1.083       .  S
C1548      C1554   1.413       .  A
C1550      C1551   1.398       .  A
C1550      H1555   1.084       .  S
C1551     Br1559   1.924       .  S
C1552      C1553   1.416       .  A
C1553      C1554   1.415       .  A
C1553      H1556   1.078       .  S
C1554     Br1560   1.917       .  S
C1561      C1566   1.407   1_455  A
C1562      C1563   1.404       .  A
C1562     Br1578   1.918       .  S
C1563      C1564   1.405       .  A
C1563      H1567   1.083       .  S
C1564      C1568   1.502       .  S
C1565      C1566   1.412       .  A
C1565     Br1577   1.917       .  S
C1566      H1569   1.083       .  S
C1568      C1574   1.398       .  A
C1570      C1571   1.418       .  A
C1570      H1575   1.083       .  S
C1571      C1572   1.435   1_655  A
C1571     Br1579   1.919       .  S
C1573      C1574   1.399       .  A
C1573      H1576   1.078       .  S
C1574     Br1580   1.922       .  S
C1581      C1582   1.412       .  A
C1581      C1586   1.407   1_556  A
C1582      C1583   1.397       .  A
C1582     Br1598   1.923       .  S
C1583      C1584   1.401   1_556  A
C1583      H1587   1.084       .  S
C1584      C1588   1.461       .  S
C1584      C1585   1.400       .  A
C1585      C1586   1.389       .  A
C1585     Br1597   1.920       .  S
C1586      H1589   1.084       .  S
C1588      C1590   1.399   1_554  A
C1588      C1594   1.405       .  A
C1590      C1591   1.396       .  A
C1590      H1595   1.083       .  S
C1591      C1592   1.407   1_556  A
C1591     Br1599   1.918       .  S
C1592      C1593   1.401       .  A
C1593      C1594   1.392       .  A
C1593      H1596   1.083       .  S
C1594     Br1600   1.921       .  S
C1601      C1602   1.418       .  A
C1601      C1606   1.410       .  A
C1602      C1603   1.391       .  A
C1602     Br1618   1.922       .  S
C1603      C1604   1.395       .  A
C1603      H1607   1.084       .  S
C1604      C1608   1.456       .  S
C1604      C1605   1.400       .  A
C1605      C1606   1.393       .  A
C1605     Br1617   1.919       .  S
C1606      H1609   1.083       .  S
C1608      C1610   1.398       .  A
C1608      C1614   1.404       .  A
C1610      C1611   1.387       .  A
C1610      H1615   1.084   1_554  S
C1611      C1612   1.406       .  A
C1611     Br1619   1.921   1_554  S
C1612      C1613   1.402       .  A
C1613      C1614   1.395       .  A
C1613      H1616   1.083       .  S
C1614     Br1620   1.918       .  S
C1621      C1622   1.415       .  A
C1621      C1626   1.407       .  A
C1622      C1623   1.388       .  A
C1622     Br1638   1.926       .  S
C1623      C1624   1.398       .  A
C1623      H1627   1.084       .  S
C1624      C1628   1.466       .  S
C1624      C1625   1.406       .  A
C1625      C1626   1.393       .  A
C1625     Br1637   1.920       .  S
C1626      H1629   1.083   1_554  S
C1628      C1630   1.400       .  A
C1628      C1634   1.410       .  A
C1630      C1631   1.390       .  A
C1630      H1635   1.084   1_554  S
C1631      C1632   1.406       .  A
C1631     Br1639   1.918   1_554  S
C1632      C1633   1.400       .  A
C1633      C1634   1.395       .  A
C1633      H1636   1.083       .  S
C1634     Br1640   1.922       .  S
C1641      C1642   1.410   1_554  A
C1641      C1646   1.403       .  A
C1642      C1643   1.395       .  A
C1642     Br1658   1.916       .  S
C1643      C1644   1.397   1_556  A
C1643      H1647   1.084       .  S
C1644      C1648   1.455       .  S
C1644      C1645   1.402       .  A
C1645      C1646   1.390       .  A
C1645     Br1657   1.920       .  S
C1646      H1649   1.084       .  S
C1648      C1650   1.399       .  A
C1648      C1654   1.404   1_554  A
C1650      C1651   1.390       .  A
C1650      H1655   1.084       .  S
C1651      C1652   1.406       .  A
C1651     Br1659   1.920       .  S
C1652      C1653   1.401   1_554  A
C1653      C1654   1.390       .  A
C1653      H1656   1.084       .  S
C1654     Br1660   1.917       .  S
C1661      C2322   1.440   1_545  A
C1661      C1666   1.430       .  A
C1661      C2160   1.600       .  S
C1662      C2321   1.441       .  A
C1662      C1663   1.419       .  A
C1662     Br1678   1.924       .  S
C1663      C2324   1.404       .  A
C1663      H1667   1.083       .  S
C1664      C1668   1.498       .  S
C1664      C2323   1.403       .  A
C1664      C1665   1.397   1_565  A
C1665      C1666   1.397       .  A
C1665     Br1677   1.921       .  S
C1666      H1669   1.073       .  S
C1668      C1670   1.410       .  A
C1668      C2334   1.404   1_565  A
C1670      C1671   1.417       .  A
C1670      H1675   1.083       .  S
C1671      C1672   1.414       .  A
C1671     Br1679   1.916       .  S
C1672      C2333   1.415   1_565  A
C1673      C2332   1.417       .  A
C1673      C1674   1.404       .  A
C1673      H1676   1.083       .  S
C1674      C2328   1.405       .  A
C1674     Br1680   1.920       .  S
C1681      C1682   1.411   1_565  A
C1681      C2346   1.408       .  A
C1682      C1683   1.409       .  A
C1682     Br1698   1.917       .  S
C1683      C1684   1.408       .  A
C1683      H1687   1.083       .  S
C1684      C1688   1.503       .  S
C1684      C2345   1.413   1_545  A
C1685      C2344   1.412       .  A
C1685      C1686   1.404       .  A
C1685     Br1697   1.913       .  S
C1686      C2341   1.401       .  A
C1686      H1689   1.084       .  S
C1688      C2350   1.406   1_545  A
C1688      C1694   1.403       .  A
C1690      C2348   1.404       .  A
C1690      C1691   1.417       .  A
C1690      H1695   1.084       .  S
C1691      C2352   1.439       .  A
C1691     Br1699   1.921       .  S
C1692      C2351   1.437       .  A
C1692      C1693   1.428       .  A
C1692      C2160   1.582       .  S
C1693      C1694   1.401       .  A
C1693      H1696   1.083       .  S
C1694     Br1700   1.918       .  S
C1701      C1706   1.420   1_455  A
C1702      C1703   1.413       .  A
C1702     Br1718   1.922       .  S
C1703      H1707   1.083       .  S
C1704      C1708   1.522   1_455  S
C1704      C1705   1.418   1_455  A
C1705      C1706   1.414       .  A
C1705     Br1717   1.923       .  S
C1706      H1709   1.083       .  S
C1708      C1714   1.425   1_655  A
C1710      C1711   1.402       .  A
C1710      H1715   1.082       .  S
C1711     Br1719   1.924       .  S
C1712      C1713   1.408   1_655  A
C1713      C1714   1.420       .  A
C1713      H1716   1.083       .  S
C1714     Br1720   1.919       .  S
C1721      C1726   1.425   1_455  A
C1722      C1723   1.417       .  A
C1722     Br1738   1.912       .  S
C1723      H1727   1.083       .  S
C1724      C1728   1.507       .  S
C1724      C1725   1.403       .  A
C1725      C1726   1.407       .  A
C1725     Br1737   1.918       .  S
C1726      H1729   1.076       .  S
C1728      C1730   1.414   1_655  A
C1730      C1731   1.421       .  A
C1730      H1735   1.083       .  S
C1731      C1732   1.415   1_455  A
C1731     Br1739   1.916       .  S
C1733      C1734   1.403       .  A
C1733      H1736   1.084       .  S
C1734     Br1740   1.919       .  S
C1741      C1742   1.418       .  A
C1741      C1746   1.412       .  A
C1742      C1743   1.425       .  A
C1742     Br1758   1.915       .  S
C1743      C1744   1.416       .  A
C1743      H1747   1.083       .  S
C1744      C1748   1.518       .  S
C1744      C1745   1.412       .  A
C1745      C1746   1.403       .  A
C1745     Br1757   1.921       .  S
C1746      H1749   1.084       .  S
C1748      C1750   1.397       .  A
C1748      C1754   1.415       .  A
C1750      C1751   1.405       .  A
C1750      H1755   1.084       .  S
C1751      C1752   1.444       .  A
C1751     Br1759   1.931       .  S
C1752      C1753   1.424       .  A
C1753      C1754   1.421       .  A
C1753      H1756   1.083       .  S
C1754     Br1760   1.914       .  S
C1761      C1762   1.435       .  A
C1761      C1766   1.428       .  A
C1762      C1763   1.418       .  A
C1762     Br1778   1.905       .  S
C1763      C1764   1.404       .  A
C1763      H1767   1.083       .  S
C1764      C1768   1.524       .  S
C1764      C1765   1.411       .  A
C1765      C1766   1.414       .  A
C1765     Br1777   1.920       .  S
C1766      H1769   1.073       .  S
C1768      C1770   1.409       .  A
C1768      C1774   1.422       .  A
C1770      C1771   1.413       .  A
C1770      H1775   1.083       .  S
C1771      C1772   1.417       .  A
C1771     Br1779   1.921       .  S
C1772      C1773   1.407       .  A
C1773      C1774   1.417       .  A
C1773      H1776   1.083       .  S
C1774     Br1780   1.916       .  S
C1781      C1782   1.442       .  A
C1781      C1786   1.417       .  A
C1781      C2160   1.598       .  S
C1782      C1783   1.403       .  A
C1782     Br1798   1.921       .  S
C1783      C1784   1.395       .  A
C1783      H1787   1.084       .  S
C1784      C1788   1.513       .  S
C1784      C1785   1.416       .  A
C1785      C1786   1.417       .  A
C1785     Br1797   1.917       .  S
C1786      H1789   1.079       .  S
C1788      C1790   1.405       .  A
C1788      C1794   1.421       .  A
C1790      C1791   1.406       .  A
C1790      H1795   1.083       .  S
C1791      C1792   1.415       .  A
C1791     Br1799   1.920       .  S
C1792      C1793   1.406       .  A
C1793      C1794   1.415       .  A
C1793      H1796   1.083       .  S
C1794     Br1800   1.919       .  S
C1801      C1802   1.430       .  A
C1801      C1806   1.410       .  A
C1802      C1803   1.407       .  A
C1802     Br1818   1.927       .  S
C1803      C1804   1.401       .  A
C1803      H1807   1.083       .  S
C1804      C1808   1.522       .  S
C1804      C1805   1.423       .  A
C1805      C1806   1.420       .  A
C1805     Br1817   1.919       .  S
C1806      H1809   1.083       .  S
C1808      C1810   1.395       .  A
C1808      C1814   1.412       .  A
C1810      C1811   1.412       .  A
C1810      H1815   1.084       .  S
C1811      C1812   1.454       .  A
C1811     Br1819   1.923       .  S
C1812      C1813   1.425       .  A
C1813      C1814   1.415       .  A
C1813      H1816   1.083       .  S
C1814     Br1820   1.917       .  S
C1821      C1822   1.421       .  A
C1821      C1826   1.408       .  A
C1822      C1823   1.395       .  A
C1822     Br1838   1.925       .  S
C1823      C1824   1.397       .  A
C1823      H1827   1.084       .  S
C1824      C1828   1.462       .  S
C1824      C1825   1.401       .  A
C1825      C1826   1.389       .  A
C1825     Br1837   1.919       .  S
C1826      H1829   1.083       .  S
C1828      C1830   1.401       .  A
C1828      C1834   1.405       .  A
C1830      C1831   1.394       .  A
C1830      H1835   1.084       .  S
C1831      C1832   1.405       .  A
C1831     Br1839   1.918       .  S
C1832      C1833   1.402       .  A
C1833      C1834   1.393       .  A
C1833      H1836   1.084       .  S
C1834     Br1840   1.919       .  S
C1841      C1842   1.421       .  A
C1841      C1846   1.410       .  A
C1842      C1843   1.397       .  A
C1842     Br1858   1.925       .  S
C1843      C1844   1.397       .  A
C1843      H1847   1.084       .  S
C1844      C1848   1.466       .  S
C1844      C1845   1.402       .  A
C1845      C1846   1.392       .  A
C1845     Br1857   1.919       .  S
C1846      H1849   1.083       .  S
C1848      C1850   1.403       .  A
C1848      C1854   1.404       .  A
C1850      C1851   1.398       .  A
C1850      H1855   1.083       .  S
C1851      C1852   1.405       .  A
C1851     Br1859   1.917       .  S
C1852      C1853   1.402       .  A
C1853      C1854   1.393       .  A
C1853      H1856   1.084       .  S
C1854     Br1860   1.920       .  S
C1861      C1862   1.417       .  A
C1861      C1866   1.406       .  A
C1862      C1863   1.396       .  A
C1862     Br1878   1.924       .  S
C1863      C1864   1.401       .  A
C1863      H1867   1.083       .  S
C1864      C1868   1.472       .  S
C1864      C1865   1.407       .  A
C1865      C1866   1.390       .  A
C1865     Br1877   1.922       .  S
C1866      H1869   1.083       .  S
C1868      C1870   1.405       .  A
C1868      C1874   1.409       .  A
C1870      C1871   1.393       .  A
C1870      H1875   1.084       .  S
C1871      C1872   1.403       .  A
C1871     Br1879   1.917       .  S
C1872      C1873   1.401       .  A
C1873      C1874   1.393       .  A
C1873      H1876   1.084       .  S
C1874     Br1880   1.920       .  S
C1881      C1882   1.410       .  A
C1881      C1886   1.403       .  A
C1882      C1883   1.400       .  A
C1882     Br1898   1.919       .  S
C1883      C1884   1.402       .  A
C1883      H1887   1.083       .  S
C1884      C1888   1.470       .  S
C1884      C1885   1.405       .  A
C1885      C1886   1.393       .  A
C1885     Br1897   1.919       .  S
C1886      H1889   1.084       .  S
C1888      C1890   1.401       .  A
C1888      C1894   1.404       .  A
C1890      C1891   1.399       .  A
C1890      H1895   1.084       .  S
C1891      C1892   1.413       .  A
C1891     Br1899   1.923       .  S
C1892      C1893   1.405       .  A
C1893      C1894   1.395       .  A
C1893      H1896   1.084       .  S
C1894     Br1900   1.919       .  S
C1901      C1902   1.409       .  A
C1901      C1906   1.407       .  A
C1902      C1903   1.408       .  A
C1902     Br1918   1.914       .  S
C1903      C1904   1.411       .  A
C1903      H1907   1.083       .  S
C1904      C1908   1.498       .  S
C1904      C1905   1.410       .  A
C1905      C1906   1.402       .  A
C1905     Br1917   1.919       .  S
C1906      H1909   1.084       .  S
C1908      C1910   1.390       .  A
C1908      C1914   1.412       .  A
C1910      C1911   1.397       .  A
C1910      H1915   1.084       .  S
C1911      C1912   1.444       .  A
C1911     Br1919   1.926       .  S
C1912      C1913   1.414       .  A
C1913      C1914   1.413       .  A
C1913      H1916   1.078       .  S
C1914     Br1920   1.917       .  S
C1921      C1922   1.408       .  A
C1921      C1926   1.408       .  A
C1922      C1923   1.410       .  A
C1922     Br1938   1.919       .  S
C1923      C1924   1.414       .  A
C1923      H1927   1.083       .  S
C1924      C1928   1.525       .  S
C1924      C1925   1.422       .  A
C1925      C1926   1.414       .  A
C1925     Br1937   1.920       .  S
C1926      H1929   1.083       .  S
C1928      C1930   1.411       .  A
C1928      C1934   1.408       .  A
C1930      C1931   1.423       .  A
C1930      H1935   1.082       .  S
C1931      C1932   1.436       .  A
C1931     Br1939   1.920       .  S
C1932      C1933   1.428       .  A
C1933      C1934   1.405       .  A
C1933      H1936   1.078       .  S
C1934     Br1940   1.925       .  S
C1941      C1942   1.411       .  A
C1941      C1946   1.405       .  A
C1942      C1943   1.404       .  A
C1942     Br1958   1.917       .  S
C1943      C1944   1.405       .  A
C1943      H1947   1.083       .  S
C1944      C1948   1.497       .  S
C1944      C1945   1.413       .  A
C1945      C1946   1.408       .  A
C1945     Br1957   1.919       .  S
C1946      H1949   1.083       .  S
C1948      C1950   1.403       .  A
C1948      C1954   1.399       .  A
C1950      C1951   1.412       .  A
C1950      H1955   1.084       .  S
C1951      C1952   1.430       .  A
C1951     Br1959   1.910       .  S
C1952      C1953   1.432       .  A
C1953      C1954   1.398       .  A
C1953      H1956   1.080       .  S
C1954     Br1960   1.922       .  S
C1961      C1962   1.432       .  A
C1961      C1966   1.424       .  A
C1961      C2158   1.580   1_545  S
C1962      C1963   1.417       .  A
C1962     Br1978   1.922   1_545  S
C1963      C1964   1.408       .  A
C1963      H1967   1.083       .  S
C1964      C1968   1.510       .  S
C1964      C1965   1.405       .  A
C1965      C1966   1.404       .  A
C1965     Br1977   1.919       .  S
C1966      H1969   1.080       .  S
C1968      C1970   1.410       .  A
C1968      C1974   1.414       .  A
C1970      C1971   1.410       .  A
C1970      H1975   1.083       .  S
C1971      C1972   1.409       .  A
C1971     Br1979   1.917       .  S
C1972      C1973   1.409       .  A
C1973      C1974   1.412       .  A
C1973      H1976   1.084       .  S
C1974     Br1980   1.918       .  S
O1981     Zr2017   2.504       .  S
O1981      C1992   1.305       .  A
O1982     Zr2016   2.534       .  S
O1982      C1993   1.311       .  A
O1983     Zr1989   2.407       .  S
O1983      C1994   1.282       .  A
O1984     Zr1989   2.409       .  S
O1984      C1995   1.287       .  A
O1985     Zr2019   2.429       .  S
O1985      C1995   1.287       .  A
O1986     Zr2018   2.432       .  S
O1986      C1994   1.290       .  A
O1987     Zr1989   2.400       .  S
O1987      C1993   1.284       .  A
O1988     Zr1989   2.436       .  S
O1988      C1992   1.290       .  A
Zr1989     O1990   2.340       .  S
Zr1989     O1991   2.329       .  S
Zr1989     O1999   2.328       .  S
Zr1989     O1997   2.344       .  S
O1990     Zr2016   2.365       .  S
O1990     Zr2019   2.336       .  S
O1991     Zr2017   2.363       .  S
O1991     Zr2018   2.334       .  S
C1992      C2632   1.497       .  S
C1993      C2452   1.495       .  S
C1994      C2481   1.481       .  S
C1995      C2501   1.484       .  S
H1996      O1997   0.960       .  S
O1997     Zr2016   2.380       .  S
O1997     Zr2018   2.338       .  S
H1998      O1999   0.967       .  S
O1999     Zr2017   2.353       .  S
O1999     Zr2019   2.340       .  S
O2000     Zr2016   2.538       .  S
O2000      C2023   1.312       .  A
O2001     Zr2017   2.495       .  S
O2001      C2024   1.303       .  A
O2002     Zr2018   2.411       .  S
O2002      C2025   1.288       .  A
O2003     Zr2019   2.403       .  S
O2003      C2026   1.286       .  A
O2004     Zr2019   2.404       .  S
O2004      C2027   1.285       .  A
O2005     Zr2018   2.426       .  S
O2005      C2028   1.290       .  A
O2006     Zr2020   2.417       .  S
O2006      C2029   1.287       .  A
O2007     Zr2020   2.422       .  S
O2007      C2030   1.286       .  A
O2008     Zr2018   2.407       .  S
O2008      C2029   1.284       .  A
O2009     Zr2019   2.450       .  S
O2009      C2030   1.293       .  A
O2010     Zr2016   2.539       .  S
O2010      C2025   1.311       .  A
O2011     Zr2017   2.506       .  S
O2011      C2028   1.305       .  A
O2012     Zr2017   2.530       .  S
O2012      C2027   1.311       .  A
O2013     Zr2016   2.529       .  S
O2013      C2026   1.310       .  A
O2014     Zr2020   2.408       .  S
O2014      C2023   1.285       .  A
O2015     Zr2020   2.420       .  S
O2015      C2024   1.288       .  A
Zr2016     O2022   2.364       .  S
Zr2016     O2034   2.375       .  S
Zr2017     O2021   2.369       .  S
Zr2017     O2032   2.363       .  S
Zr2018     O2022   2.337       .  S
Zr2018     O2032   2.333       .  S
Zr2019     O2021   2.334       .  S
Zr2019     O2034   2.336       .  S
Zr2020     O2021   2.336       .  S
Zr2020     O2022   2.334       .  S
Zr2020     O2034   2.338       .  S
Zr2020     O2032   2.331       .  S
C2023      C2461   1.517       .  S
C2024      C2601   1.485       .  S
C2025      C2401   1.520       .  S
C2026      C2432   1.500       .  S
C2027      C2561   1.496       .  S
C2028      C2581   1.492       .  S
C2029      C2552   1.466       .  S
C2030      C2521   1.492       .  S
H2031      O2032   0.960       .  S
H2033      O2034   0.960       .  S
N2035      C2040   1.350   1_455  A
N2035      H2067   1.039       .  S
N2036      C2044   1.348       .  A
N2037      C2042   1.351   1_455  A
N2037      H2068   1.038       .  S
N2038      C2046   1.349       .  A
C2039      C2047   1.388       .  A
C2039      C2055   1.412       .  A
C2040      C2056   1.408       .  A
C2040      C2048   1.387   1_655  A
C2041      C2049   1.387       .  A
C2041      C2058   1.414       .  A
C2042      C2057   1.413       .  A
C2042      C2050   1.388       .  A
C2043      C2055   1.406       .  A
C2043      C2051   1.385       .  A
C2044      C2058   1.408       .  A
C2044      C2052   1.387       .  A
C2045      C2053   1.387       .  A
C2045      C2056   1.406       .  A
C2046      C2054   1.386       .  A
C2046      C2057   1.408       .  A
C2047      H2059   1.082       .  S
C2048      H2060   1.082   1_455  S
C2049      H2061   1.082       .  S
C2050      H2062   1.082       .  S
C2051      H2063   1.082       .  S
C2052      H2064   1.082       .  S
C2053      H2065   1.083       .  S
C2054      H2066   1.082       .  S
C2055      C2532   1.477       .  S
C2056      C2541   1.470       .  S
C2057      C2492   1.474       .  S
C2058      C2512   1.480       .  S
O2069      C2080   1.307   1_655  A
O2070     Zr2104   2.501       .  S
O2070      C2081   1.305       .  A
O2071      C2082   1.290   1_556  A
O2072     Zr2077   2.417   1_655  S
O2072      C2083   1.286       .  A
O2073     Zr2107   2.441       .  S
O2073      C2083   1.291       .  A
O2074     Zr2106   2.406       .  S
O2074      C2082   1.285       .  A
O2075     Zr2077   2.408       .  S
O2075      C2081   1.286       .  A
O2076     Zr2077   2.402   1_556  S
O2076      C2080   1.286       .  A
Zr2077     O2078   2.336   1_455  S
Zr2077     O2087   2.346   1_454  S
O2078     Zr2104   2.356   1_655  S
O2078     Zr2107   2.324       .  S
O2079     Zr2106   2.337   1_556  S
C2080      C2392   1.490   1_455  S
C2081      C2201   1.487       .  S
C2082      C2241   1.472       .  S
C2083      C2261   1.476       .  S
H2084      O2085   0.972       .  S
O2085     Zr2106   2.337       .  S
H2086      O2087   0.968       .  S
O2087     Zr2107   2.330   1_556  S
O2088      C2111   1.304       .  A
O2089     Zr2105   2.541       .  S
O2089      C2112   1.312       .  A
O2090     Zr2106   2.427       .  S
O2090      C2113   1.290       .  A
O2091     Zr2107   2.404       .  S
O2091      C2114   1.285       .  A
O2092      C2115   1.289       .  A
O2093      C2116   1.288       .  A
O2094      C2117   1.287       .  A
O2095     Zr2108   2.410       .  S
O2095      C2118   1.284       .  A
O2096      C2117   1.283   1_556  A
O2097      C2118   1.290       .  A
O2098      C2113   1.306       .  A
O2099      C2116   1.306       .  A
O2100     Zr2105   2.531       .  S
O2100      C2115   1.310       .  A
O2101     Zr2104   2.528   1_655  S
O2101      C2114   1.309       .  A
O2102     Zr2108   2.416   1_455  S
O2102      C2111   1.288       .  A
O2103     Zr2108   2.404   1_556  S
O2103      C2112   1.285       .  A
Zr2105     O2109   2.363       .  S
Zr2108     O2109   2.343   1_554  S
Zr2108     O2122   2.331       .  S
C2111      C2221   1.491       .  S
C2112      C2372   1.517       .  S
C2113      C2161   1.492       .  S
C2114      C2181   1.495       .  S
C2115      C2332   1.519       .  S
C2116      C2341   1.487       .  S
C2117      C2301   1.471       .  S
C2118      C2281   1.472       .  S
H2119      O2120   0.968       .  S
H2121      O2122   0.963       .  S
N2123      C2128   1.351       .  A
N2123      C2127   1.355       .  A
N2123      H2155   1.038       .  S
N2124      C2131   1.348       .  A
N2124      C2132   1.347       .  A
N2125      C2130   1.350       .  A
N2125      C2129   1.349       .  A
N2125      H2156   1.039       .  S
N2126      C2133   1.349       .  A
N2126      C2134   1.352       .  A
C2127      C2135   1.387       .  A
C2127      C2143   1.414       .  A
C2128      C2144   1.414       .  A
C2128      C2136   1.388       .  A
C2129      C2137   1.388       .  A
C2129      C2146   1.408       .  A
C2130      C2145   1.406       .  A
C2130      C2138   1.387       .  A
C2131      C2143   1.406       .  A
C2131      C2139   1.385       .  A
C2132      C2146   1.407       .  A
C2132      C2140   1.388       .  A
C2133      C2141   1.389       .  A
C2133      C2144   1.412       .  A
C2134      C2142   1.384       .  A
C2134      C2145   1.408       .  A
C2135      C2136   1.372       .  A
C2135      H2147   1.082       .  S
C2136      H2148   1.082       .  S
C2137      C2138   1.369       .  A
C2137      H2149   1.082       .  S
C2138      H2150   1.083       .  S
C2139      C2140   1.370       .  A
C2139      H2151   1.082       .  S
C2140      H2152   1.083       .  S
C2141      C2142   1.371       .  A
C2141      H2153   1.082       .  S
C2142      H2154   1.082       .  S
C2143      C2272   1.480       .  S
C2144      C2252   1.475       .  S
C2145      C2312   1.476       .  S
C2146      C2292   1.466       .  S
C2157      C2212   1.584       .  S
C2157      C2232   1.601       .  S
C2157      C2592   1.602   1_455  S
C2158      C2172   1.594       .  S
C2158      C2192   1.592   1_565  S
C2158      C2612   1.595       .  S
C2159      C2361   1.592       .  S
C2159      C2381   1.610       .  S
C2159      C2412   1.610   1_455  S
C2160      C2472   1.608   1_545  S
C2161      C2162   1.410       .  A
C2162      C2163   1.408       .  A
C2162     Br2178   1.915       .  S
C2163      C2164   1.409   1_565  A
C2163      H2167   1.083       .  S
C2164      C2168   1.506       .  S
C2165      C2166   1.413       .  A
C2165     Br2177   1.918       .  S
C2166      H2169   1.084       .  S
C2168      C2174   1.400   1_545  A
C2170      C2171   1.423       .  A
C2170      H2175   1.083       .  S
C2171     Br2179   1.919       .  S
C2172      C2173   1.424       .  A
C2173      C2174   1.397       .  A
C2173      H2176   1.076       .  S
C2174     Br2180   1.922       .  S
C2181      C2182   1.413       .  A
C2182      C2183   1.415       .  A
C2182     Br2198   1.914       .  S
C2183      C2184   1.410       .  A
C2183      H2187   1.083       .  S
C2184      C2188   1.504       .  S
C2185      C2186   1.402       .  A
C2185     Br2197   1.918       .  S
C2186      H2189   1.084       .  S
C2188      C2194   1.407       .  A
C2190      C2191   1.406       .  A
C2190      H2195   1.085       .  S
C2191     Br2199   1.934       .  S
C2192      C2193   1.427   1_545  A
C2193      C2194   1.415       .  A
C2193      H2196   1.082       .  S
C2194     Br2200   1.918       .  S
C2201      C2206   1.403   1_455  A
C2202      C2203   1.404       .  A
C2202     Br2218   1.919       .  S
C2203      H2207   1.083       .  S
C2204      C2208   1.499       .  S
C2204      C2205   1.417   1_455  A
C2205      C2206   1.408       .  A
C2205     Br2217   1.919       .  S
C2206      H2209   1.082       .  S
C2208      C2214   1.413       .  A
C2210      C2211   1.396       .  A
C2210      H2215   1.084       .  S
C2211     Br2219   1.925       .  S
C2212      C2213   1.417       .  A
C2213      C2214   1.416       .  A
C2213      H2216   1.079       .  S
C2214     Br2220   1.916       .  S
C2221      C2226   1.406   1_455  A
C2222      C2223   1.401       .  A
C2222     Br2238   1.916       .  S
C2223      C2224   1.402       .  A
C2223      H2227   1.084       .  S
C2224      C2228   1.497       .  S
C2225      C2226   1.412       .  A
C2225     Br2237   1.915       .  S
C2226      H2229   1.083       .  S
C2228      C2234   1.395       .  A
C2230      C2231   1.419       .  A
C2230      H2235   1.083       .  S
C2231      C2232   1.435   1_655  A
C2231     Br2239   1.920       .  S
C2233      C2234   1.395       .  A
C2233      H2236   1.077       .  S
C2234     Br2240   1.923       .  S
C2241      C2242   1.410   1_554  A
C2241      C2246   1.408       .  A
C2242      C2243   1.395   1_556  A
C2242     Br2258   1.922       .  S
C2243      C2244   1.403       .  A
C2243      H2247   1.084   1_554  S
C2244      C2248   1.470       .  S
C2244      C2245   1.405       .  A
C2245      C2246   1.393       .  A
C2245     Br2257   1.921       .  S
C2246      H2249   1.084       .  S
C2248      C2250   1.399       .  A
C2248      C2254   1.412       .  A
C2250      C2251   1.389       .  A
C2250      H2255   1.084   1_554  S
C2251      C2252   1.405       .  A
C2251     Br2259   1.919   1_554  S
C2252      C2253   1.402       .  A
C2253      C2254   1.398       .  A
C2253      H2256   1.083       .  S
C2254     Br2260   1.922       .  S
C2261      C2262   1.410       .  A
C2261      C2266   1.409       .  A
C2262      C2263   1.395       .  A
C2262     Br2278   1.921   1_554  S
C2263      C2264   1.401       .  A
C2263      H2267   1.084       .  S
C2264      C2268   1.472       .  S
C2264      C2265   1.406       .  A
C2265      C2266   1.399       .  A
C2265     Br2277   1.920       .  S
C2266      H2269   1.084       .  S
C2268      C2270   1.400       .  A
C2268      C2274   1.411       .  A
C2270      C2271   1.393       .  A
C2270      H2275   1.084   1_554  S
C2271      C2272   1.408       .  A
C2271     Br2279   1.920   1_554  S
C2272      C2273   1.401       .  A
C2273      C2274   1.400       .  A
C2273      H2276   1.083       .  S
C2274     Br2280   1.921       .  S
C2281      C2282   1.418       .  A
C2281      C2286   1.406       .  A
C2282      C2283   1.390       .  A
C2282     Br2298   1.923       .  S
C2283      C2284   1.395       .  A
C2283      H2287   1.084       .  S
C2284      C2288   1.458       .  S
C2284      C2285   1.403       .  A
C2285      C2286   1.394       .  A
C2285     Br2297   1.919   1_554  S
C2286      H2289   1.084   1_554  S
C2288      C2290   1.398       .  A
C2288      C2294   1.408       .  A
C2290      C2291   1.388       .  A
C2290      H2295   1.084   1_554  S
C2291      C2292   1.405       .  A
C2291     Br2299   1.920   1_554  S
C2292      C2293   1.399       .  A
C2293      C2294   1.394       .  A
C2293      H2296   1.084       .  S
C2294     Br2300   1.917       .  S
C2301      C2302   1.412   1_554  A
C2301      C2306   1.406       .  A
C2302      C2303   1.395   1_556  A
C2302     Br2318   1.923       .  S
C2303      C2304   1.402       .  A
C2303      H2307   1.083   1_554  S
C2304      C2308   1.471       .  S
C2304      C2305   1.406       .  A
C2305      C2306   1.389       .  A
C2305     Br2317   1.920       .  S
C2306      H2309   1.084       .  S
C2308      C2310   1.403       .  A
C2308      C2314   1.409   1_554  A
C2310      C2311   1.393       .  A
C2310      H2315   1.084       .  S
C2311      C2312   1.406       .  A
C2311     Br2319   1.918       .  S
C2312      C2313   1.401       .  A
C2313      C2314   1.396   1_554  A
C2313      H2316   1.083   1_554  S
C2314     Br2320   1.920       .  S
C2321      C2326   1.432       .  A
C2322      C2323   1.416       .  A
C2322     Br2338   1.924       .  S
C2323      H2327   1.083       .  S
C2324      C2328   1.508       .  S
C2324      C2325   1.399       .  A
C2325      C2326   1.403       .  A
C2325     Br2337   1.921       .  S
C2326      H2329   1.073       .  S
C2328      C2330   1.413       .  A
C2330      C2331   1.421       .  A
C2330      H2335   1.083       .  S
C2331      C2332   1.418       .  A
C2331     Br2339   1.917       .  S
C2333      C2334   1.401       .  A
C2333      H2336   1.083       .  S
C2334     Br2340   1.921       .  S
C2341      C2342   1.414       .  A
C2342      C2343   1.414       .  A
C2342     Br2358   1.921       .  S
C2343      C2344   1.410       .  A
C2343      H2347   1.083       .  S
C2344      C2348   1.506       .  S
C2345      C2346   1.409       .  A
C2345     Br2357   1.919       .  S
C2346      H2349   1.084       .  S
C2348      C2354   1.402       .  A
C2350      C2351   1.415   1_565  A
C2350      H2355   1.084       .  S
C2351     Br2359   1.923   1_545  S
C2352      C2353   1.430       .  A
C2353      C2354   1.407       .  A
C2353      H2356   1.083       .  S
C2354     Br2360   1.918       .  S
C2361      C2366   1.421   1_455  A
C2362      C2363   1.412       .  A
C2362     Br2378   1.922       .  S
C2363      H2367   1.084       .  S
C2364      C2368   1.522   1_455  S
C2364      C2365   1.417   1_455  A
C2365      C2366   1.414       .  A
C2365     Br2377   1.920       .  S
C2366      H2369   1.083       .  S
C2368      C2374   1.424   1_655  A
C2370      C2371   1.403       .  A
C2370      H2375   1.082       .  S
C2371     Br2379   1.925       .  S
C2372      C2373   1.409   1_655  A
C2373      C2374   1.421       .  A
C2373      H2376   1.083       .  S
C2374     Br2380   1.918       .  S
C2381      C2386   1.424   1_455  A
C2382      C2383   1.415       .  A
C2382     Br2398   1.914       .  S
C2383      H2387   1.084       .  S
C2384      C2388   1.502   1_455  S
C2384      C2385   1.402   1_455  A
C2385      C2386   1.403       .  A
C2385     Br2397   1.920       .  S
C2386      H2389   1.075       .  S
C2388      C2390   1.412   1_655  A
C2390      C2391   1.415       .  A
C2390      H2395   1.083       .  S
C2391      C2392   1.409   1_455  A
C2391     Br2399   1.917       .  S
C2393      C2394   1.400       .  A
C2393      H2396   1.084       .  S
C2394     Br2400   1.919       .  S
C2401      C2402   1.420       .  A
C2401      C2406   1.415       .  A
C2402      C2403   1.425       .  A
C2402     Br2418   1.917       .  S
C2403      C2404   1.416       .  A
C2403      H2407   1.083       .  S
C2404      C2408   1.511       .  S
C2404      C2405   1.404       .  A
C2405      C2406   1.399       .  A
C2405     Br2417   1.918       .  S
C2406      H2409   1.083       .  S
C2408      C2410   1.396       .  A
C2408      C2414   1.411       .  A
C2410      C2411   1.407       .  A
C2410      H2415   1.084       .  S
C2411      C2412   1.442       .  A
C2411     Br2419   1.929       .  S
C2412      C2413   1.427       .  A
C2413      C2414   1.423       .  A
C2413      H2416   1.083       .  S
C2414     Br2420   1.916       .  S
C2421      C2422   1.436       .  A
C2421      C2426   1.427       .  A
C2422      C2423   1.418       .  A
C2422     Br2438   1.905       .  S
C2423      C2424   1.402       .  A
C2423      H2427   1.083       .  S
C2424      C2428   1.510       .  S
C2424      C2425   1.405       .  A
C2425      C2426   1.409       .  A
C2425     Br2437   1.922       .  S
C2426      H2429   1.074       .  S
C2428      C2430   1.402       .  A
C2428      C2434   1.419       .  A
C2430      C2431   1.402       .  A
C2430      H2435   1.083       .  S
C2431      C2432   1.418       .  A
C2431     Br2439   1.921       .  S
C2432      C2433   1.408       .  A
C2433      C2434   1.417       .  A
C2433      H2436   1.083       .  S
C2434     Br2440   1.915       .  S
C2441      C2442   1.443       .  A
C2441      C2446   1.422       .  A
C2442      C2443   1.403       .  A
C2442     Br2458   1.922       .  S
C2443      C2444   1.393       .  A
C2443      H2447   1.084       .  S
C2444      C2448   1.511       .  S
C2444      C2445   1.414       .  A
C2445      C2446   1.421       .  A
C2445     Br2457   1.917       .  S
C2446      H2449   1.078       .  S
C2448      C2450   1.407       .  A
C2448      C2454   1.416       .  A
C2450      C2451   1.410       .  A
C2450      H2455   1.083       .  S
C2451      C2452   1.415       .  A
C2451     Br2459   1.920       .  S
C2452      C2453   1.407       .  A
C2453      C2454   1.413       .  A
C2453      H2456   1.084       .  S
C2454     Br2460   1.919       .  S
C2461      C2462   1.427       .  A
C2461      C2466   1.407       .  A
C2462      C2463   1.404       .  A
C2462     Br2478   1.924       .  S
C2463      C2464   1.400       .  A
C2463      H2467   1.082       .  S
C2464      C2468   1.521       .  S
C2464      C2465   1.426       .  A
C2465      C2466   1.418       .  A
C2465     Br2477   1.920       .  S
C2466      H2469   1.083       .  S
C2468      C2470   1.393       .  A
C2468      C2474   1.416       .  A
C2470      C2471   1.408       .  A
C2470      H2475   1.084       .  S
C2471      C2472   1.452       .  A
C2471     Br2479   1.924       .  S
C2472      C2473   1.426       .  A
C2473      C2474   1.417       .  A
C2473      H2476   1.083       .  S
C2474     Br2480   1.920       .  S
C2481      C2482   1.423       .  A
C2481      C2486   1.407       .  A
C2482      C2483   1.394       .  A
C2482     Br2498   1.926       .  S
C2483      C2484   1.394       .  A
C2483      H2487   1.084       .  S
C2484      C2488   1.463       .  S
C2484      C2485   1.403       .  A
C2485      C2486   1.394       .  A
C2485     Br2497   1.919       .  S
C2486      H2489   1.083       .  S
C2488      C2490   1.402       .  A
C2488      C2494   1.404       .  A
C2490      C2491   1.395       .  A
C2490      H2495   1.084       .  S
C2491      C2492   1.405       .  A
C2491     Br2499   1.917       .  S
C2492      C2493   1.402       .  A
C2493      C2494   1.393       .  A
C2493      H2496   1.084       .  S
C2494     Br2500   1.918       .  S
C2501      C2502   1.420       .  A
C2501      C2506   1.412       .  A
C2502      C2503   1.395       .  A
C2502     Br2518   1.925       .  S
C2503      C2504   1.396       .  A
C2503      H2507   1.084       .  S
C2504      C2508   1.465       .  S
C2504      C2505   1.402       .  A
C2505      C2506   1.394       .  A
C2505     Br2517   1.920       .  S
C2506      H2509   1.083       .  S
C2508      C2510   1.402       .  A
C2508      C2514   1.403       .  A
C2510      C2511   1.397       .  A
C2510      H2515   1.084       .  S
C2511      C2512   1.406       .  A
C2511     Br2519   1.918       .  S
C2512      C2513   1.404       .  A
C2513      C2514   1.395       .  A
C2513      H2516   1.083       .  S
C2514     Br2520   1.920       .  S
C2521      C2522   1.421       .  A
C2521      C2526   1.407       .  A
C2522      C2523   1.401       .  A
C2522     Br2538   1.923       .  S
C2523      C2524   1.401       .  A
C2523      H2527   1.084       .  S
C2524      C2528   1.479       .  S
C2524      C2525   1.406       .  A
C2525      C2526   1.396       .  A
C2525     Br2537   1.921       .  S
C2526      H2529   1.083       .  S
C2528      C2530   1.406       .  A
C2528      C2534   1.409       .  A
C2530      C2531   1.398       .  A
C2530      H2535   1.083       .  S
C2531      C2532   1.404       .  A
C2531     Br2539   1.918       .  S
C2532      C2533   1.401       .  A
C2533      C2534   1.396       .  A
C2533      H2536   1.084       .  S
C2534     Br2540   1.918       .  S
C2541      C2542   1.405       .  A
C2541      C2546   1.401       .  A
C2542      C2543   1.393       .  A
C2542     Br2558   1.917       .  S
C2543      C2544   1.400       .  A
C2543      H2547   1.084       .  S
C2544      C2548   1.456       .  S
C2544      C2545   1.404       .  A
C2545      C2546   1.390       .  A
C2545     Br2557   1.923       .  S
C2546      H2549   1.083       .  S
C2548      C2550   1.397       .  A
C2548      C2554   1.403       .  A
C2550      C2551   1.391       .  A
C2550      H2555   1.084       .  S
C2551      C2552   1.414       .  A
C2551     Br2559   1.923       .  S
C2552      C2553   1.405       .  A
C2553      C2554   1.388       .  A
C2553      H2556   1.084       .  S
C2554     Br2560   1.921       .  S
C2561      C2562   1.407       .  A
C2561      C2566   1.411       .  A
C2562      C2563   1.412       .  A
C2562     Br2578   1.916       .  S
C2563      C2564   1.415       .  A
C2563      H2567   1.083       .  S
C2564      C2568   1.514       .  S
C2564      C2565   1.416       .  A
C2565      C2566   1.410       .  A
C2565     Br2577   1.919       .  S
C2566      H2569   1.084       .  S
C2568      C2570   1.395       .  A
C2568      C2574   1.420       .  A
C2570      C2571   1.399       .  A
C2570      H2575   1.084       .  S
C2571      C2572   1.439       .  A
C2571     Br2579   1.927       .  S
C2572      C2573   1.417       .  A
C2573      C2574   1.420       .  A
C2573      H2576   1.080       .  S
C2574     Br2580   1.916       .  S
C2581      C2582   1.411       .  A
C2581      C2586   1.405       .  A
C2582      C2583   1.404       .  A
C2582     Br2598   1.916       .  S
C2583      C2584   1.406       .  A
C2583      H2587   1.083       .  S
C2584      C2588   1.506       .  S
C2584      C2585   1.416       .  A
C2585      C2586   1.412       .  A
C2585     Br2597   1.917       .  S
C2586      H2589   1.082       .  S
C2588      C2590   1.407       .  A
C2588      C2594   1.400       .  A
C2590      C2591   1.418       .  A
C2590      H2595   1.083       .  S
C2591      C2592   1.432       .  A
C2591     Br2599   1.918       .  S
C2592      C2593   1.435       .  A
C2593      C2594   1.399       .  A
C2593      H2596   1.077       .  S
C2594     Br2600   1.925       .  S
C2601      C2602   1.409       .  A
C2601      C2606   1.408       .  A
C2602      C2603   1.397       .  A
C2602     Br2618   1.913       .  S
C2603      C2604   1.400       .  A
C2603      H2607   1.084       .  S
C2604      C2608   1.494       .  S
C2604      C2605   1.415       .  A
C2605      C2606   1.414       .  A
C2605     Br2617   1.916       .  S
C2606      H2609   1.083       .  S
C2608      C2610   1.401       .  A
C2608      C2614   1.398       .  A
C2610      C2611   1.414       .  A
C2610      H2615   1.084       .  S
C2611      C2612   1.435       .  A
C2611     Br2619   1.912       .  S
C2612      C2613   1.430       .  A
C2613      C2614   1.399       .  A
C2613      H2616   1.080       .  S
C2614     Br2620   1.921       .  S
C2621      C2622   1.433       .  A
C2621      C2626   1.425       .  A
C2622      C2623   1.418       .  A
C2622     Br2638   1.923       .  S
C2623      C2624   1.408       .  A
C2623      H2627   1.083       .  S
C2624      C2628   1.505       .  S
C2624      C2625   1.402       .  A
C2625      C2626   1.401       .  A
C2625     Br2637   1.919       .  S
C2626      H2629   1.080       .  S
C2628      C2630   1.409       .  A
C2628      C2634   1.411       .  A
C2630      C2631   1.411       .  A
C2630      H2635   1.083       .  S
C2631      C2632   1.412       .  A
C2631     Br2639   1.917       .  S
C2632      C2633   1.408       .  A
C2633      C2634   1.410       .  A
C2633      H2636   1.083       .  S
C2634     Br2640   1.918       .  S
