geometry optimzed in LAMMPS
_audit_creation_date              2020-12-01 
_audit_creation_method            'lammps2cif' 
_symmetry_space_group_name_H-M    'P1' 
_symmetry_Int_Tables_number       1 
_symmetry_cell_setting            triclinic 
loop_ 
_symmetry_equiv_pos_as_xyz 
  x,y,z 
_cell_length_a                    33.33507247 
_cell_length_b                    24.21918425949034 
_cell_length_c                    26.41483841236632 
_cell_angle_alpha                 90.06262945953057 
_cell_angle_beta                  89.1410436987667 
_cell_angle_gamma                 90.65397325414934 
loop_ 
_atom_site_label 
_atom_site_type_symbol 
_atom_site_fract_x 
_atom_site_fract_y 
_atom_site_fract_z 
_atom_site_charge 
C1          C  0.47827248  0.01062843  0.20548651     0.05800
C2          C  0.51945913  0.99827820  0.20420939     0.05800
C3          C  0.53994607  0.98984229  0.24940037    -0.14700
C4          C  0.51971605  0.99288482  0.29601270     0.05800
C5          C  0.47845676  0.00429636  0.29726766     0.05800
C6          C  0.45800055  0.01325535  0.25215420    -0.14700
H7          H  0.42612852  0.02184889  0.25336949     0.07800
H8          H  0.57178218  0.98101568  0.24827422     0.07800
In9        In  0.36042142  0.00380638  0.50389655     1.36900
C10         C  0.40991716  0.00458807  0.42535539     0.81100
O11         O  0.31617467  0.04509728  0.45160400    -0.57300
O12         O  0.33792112  0.09054426  0.51389590    -0.48200
C13         C  0.30917834  0.93398435  0.05545295     0.73800
O14         O  0.31221727  0.95796368  0.54896126    -0.43100
C15         C  0.40881623  0.01670499  0.08027925     0.78500
O16         O  0.37817009  0.97593473  0.42643233    -0.55000
O17         O  0.38628738  0.05543702  0.06643623    -0.45100
O18         O  0.41678380  0.03256909  0.46455720    -0.51400
C19         C  0.31700946  0.09062624  0.47466294     0.88700
O20         O  0.31347369  0.98377114  0.06827432    -0.53300
O21         O  0.40588640  0.97254037  0.05521095    -0.56600
In22       In  0.64060537  0.99011135  0.00028071     1.36900
C23         C  0.58993783  0.99113959  0.07788921     0.81100
O24         O  0.58708185  0.02337441  0.45360953    -0.57300
O25         O  0.61157810  0.94559035  0.43270230    -0.48200
C26         C  0.68616947  0.06044546  0.45319987     0.73800
O27         O  0.67486722  0.06794023  0.01843843    -0.43100
C28         C  0.68564642  0.90388040  0.02368413     0.78500
O29         O  0.61474183  0.02974848  0.06948057    -0.55000
O30         O  0.65297714  0.90277203  0.51879313    -0.45100
O31         O  0.59079692  0.95178841  0.04667887    -0.51400
C32         C  0.58704661  0.98337493  0.42312653     0.88700
O33         O  0.67906684  0.01268799  0.43622607    -0.53300
O34         O  0.68267929  0.94596834  0.05140385    -0.56600
C35         C  0.51777919  0.49519802  0.19256989     0.05800
C36         C  0.47556310  0.49685986  0.19454577     0.05800
C37         C  0.45568032  0.50187223  0.24144811    -0.14700
C38         C  0.47741883  0.50598321  0.28632671     0.05800
C39         C  0.51966335  0.50609861  0.28407273     0.05800
C40         C  0.53947860  0.50018274  0.23732381    -0.14700
H41         H  0.57200893  0.49950564  0.23575912     0.07800
H42         H  0.42315151  0.50236611  0.24304799     0.07800
In43       In  0.35242222  0.49866073  0.99550246     1.36900
C44         C  0.40967114  0.50661667  0.41639595     0.81100
O45         O  0.39943989  0.53774636  0.04434622    -0.57300
O46         O  0.38305809  0.45394879  0.05821597    -0.48200
C47         C  0.30784293  0.58569311  0.01891111     0.73800
O48         O  0.33492843  0.58802828  0.48487802    -0.43100
C49         C  0.31529678  0.41480797  0.47317446     0.78500
O50         O  0.38051530  0.53877380  0.42176141    -0.55000
O51         O  0.31467441  0.42486102  0.01858194    -0.45100
O52         O  0.41398490  0.47271048  0.45198780    -0.51400
C53         C  0.40410049  0.49509679  0.07072726     0.88700
O54         O  0.31255057  0.54580653  0.04870393    -0.53300
O55         O  0.31893474  0.45620563  0.44459966    -0.56600
In56       In  0.63581249  0.49782794  0.48923601     1.36900
C57         C  0.58895471  0.50929130  0.40964966     0.81100
O58         O  0.69110779  0.45408854  0.45781066    -0.57300
O59         O  0.64027694  0.40673128  0.48048403    -0.48200
C60         C  0.68722167  0.58387212  0.01975240     0.73800
O61         O  0.66633613  0.57945213  0.47641473    -0.43100
C62         C  0.58901668  0.49134673  0.06629479     0.78500
O63         O  0.62032732  0.53802016  0.41515019    -0.55000
O64         O  0.61548702  0.45553058  0.05729821    -0.45100
O65         O  0.58113169  0.47601719  0.44497762    -0.51400
C66         C  0.67497325  0.40694096  0.46140982     0.88700
O67         O  0.68166199  0.54065864  0.04564052    -0.53300
O68         O  0.58883390  0.53161011  0.03620694    -0.56600
C69         C  0.97088294  0.50864184  0.05695109     0.05800
C70         C  0.01315824  0.51000782  0.05780526     0.05800
C71         C  0.03498970  0.51619862  0.01247510    -0.14700
C72         C  0.01994731  0.49667230  0.46239417     0.05800
C73         C  0.97821590  0.50502365  0.46444500     0.05800
C74         C  0.95118631  0.51375628  0.01076104    -0.14700
H75         H  0.91865928  0.51251022  0.01001194     0.07800
H76         H  0.06752752  0.51678111  0.01302487     0.07800
In77       In  0.13817464  0.49970732  0.25451430     1.36900
C78         C  0.08509372  0.50090720  0.18058450     0.81100
O79         O  0.08632455  0.46231777  0.29825323    -0.57300
O80         O  0.11468879  0.53433462  0.32767634    -0.48200
C81         C  0.18591417  0.41514698  0.27547974     0.73800
O82         O  0.17125048  0.42228184  0.23239060    -0.43100
C83         C  0.18421238  0.58679752  0.22988529     0.78500
O84         O  0.10420099  0.45814568  0.19177241    -0.55000
O85         O  0.16535805  0.58326672  0.27139998    -0.45100
O86         O  0.09281842  0.54273449  0.20715402    -0.51400
C87         C  0.08797886  0.49758922  0.33319699     0.88700
O88         O  0.17848408  0.45316076  0.30665903    -0.53300
O89         O  0.18166828  0.54431233  0.20240187    -0.56600
In90       In  0.85381953  0.50427023  0.26616790     1.36900
C91         C  0.89976037  0.50046153  0.18356467     0.81100
O92         O  0.81050287  0.54303573  0.21342596    -0.57300
O93         O  0.83142409  0.59005121  0.27628464    -0.48200
C94         C  0.80407894  0.42642268  0.30293942     0.73800
O95         O  0.83668010  0.41571273  0.28044037    -0.43100
C96         C  0.90569804  0.50960580  0.34146142     0.78500
O97         O  0.87191137  0.46562602  0.19163165    -0.55000
O98         O  0.87739016  0.54327683  0.33734608    -0.45100
O99         O  0.90381493  0.53684639  0.21718619    -0.51400
C100        C  0.81030861  0.58844198  0.23701577     0.88700
O101        O  0.79566045  0.47684383  0.30415779    -0.53300
O102        O  0.90775811  0.47372424  0.30710674    -0.56600
C103        C  0.00755925  0.02491682  0.04048574     0.05800
C104        C  0.96530904  0.02324314  0.04069554     0.05800
C105        C  0.94484452  0.02078117  0.99461066    -0.14700
C106        C  0.98631109  0.97976835  0.44441253     0.05800
C107        C  0.02850824  0.98326848  0.44546952     0.05800
C108        C  0.02873718  0.02336258  0.99437389    -0.14700
H109        H  0.06128734  0.02376561  0.99423547     0.07800
H110        H  0.91231799  0.01913708  0.99475339     0.07800
In111      In  0.13883778  0.01248765  0.22966117     1.36900
C112        C  0.08078691  0.02164041  0.16254742     0.81100
O113        O  0.17619540  0.98580856  0.16174328    -0.57300
O114        O  0.17115160  0.93099891  0.22366770    -0.48200
C115        C  0.18619966  0.09558652  0.26111138     0.73800
O116        O  0.16739729  0.09692082  0.22020381    -0.43100
C117        C  0.09474793  0.99446107  0.31351777     0.78500
O118        O  0.10321420  0.06176586  0.17433910    -0.55000
O119        O  0.12244687  0.96252873  0.29951556    -0.45100
O120        O  0.08683572  0.97755398  0.18642591    -0.51400
C121        C  0.18412559  0.93899693  0.17915346     0.88700
O122        O  0.18266786  0.05065163  0.28470375    -0.53300
O123        O  0.08898766  0.03460113  0.28428920    -0.56600
In124      In  0.85664748  0.99217935  0.25573890     1.36900
C125        C  0.91431377  0.98060026  0.32235755     0.81100
O126        O  0.89927251  0.96235069  0.19528287    -0.57300
O127        O  0.88196250  0.04658640  0.19394944    -0.48200
C128        C  0.80931143  0.90674807  0.23253196     0.73800
O129        O  0.82311823  0.91350314  0.27623737    -0.43100
C130        C  0.80947668  0.07233340  0.29152065     0.78500
O131        O  0.88949425  0.94243933  0.31306107    -0.55000
O132        O  0.81382980  0.06235770  0.24505410    -0.45100
O133        O  0.91050661  0.02394683  0.29667847    -0.51400
C134        C  0.90158939  0.00837294  0.17320381     0.88700
O135        O  0.81779241  0.94512023  0.20201743    -0.53300
O136        O  0.82725690  0.03933123  0.31997879    -0.56600
C137        C  0.74292843  0.19425217  0.41817400     0.05800
C138        C  0.76928270  0.18857717  0.37612272     0.05800
C139        C  0.78447940  0.23634501  0.35222342    -0.14700
C140        C  0.77348466  0.28956506  0.36785083     0.05800
C141        C  0.74613283  0.29538943  0.40914247     0.05800
C142        C  0.73251674  0.24734944  0.43446961    -0.14700
H143        H  0.71322485  0.25109158  0.46767006     0.07800
H144        H  0.80615942  0.23204751  0.32146559     0.07800
C145        C  0.73455254  0.79423319  0.10735794     0.05800
C146        C  0.75980614  0.79504081  0.14981662     0.05800
C147        C  0.77246282  0.74487182  0.17036093    -0.14700
C148        C  0.75997442  0.69363881  0.15040585     0.05800
C149        C  0.73504766  0.69272909  0.10749838     0.05800
C150        C  0.72233417  0.74314038  0.08699418    -0.14700
H151        H  0.70095168  0.74254258  0.05661661     0.07800
H152        H  0.79417129  0.74600374  0.20033826     0.07800
C153        C  0.26527890  0.19972953  0.39073410     0.05800
C154        C  0.23748154  0.20025722  0.35046055     0.05800
C155        C  0.22317718  0.25135632  0.33308333    -0.14700
C156        C  0.23680546  0.30177318  0.35315786     0.05800
C157        C  0.26526222  0.30153628  0.39209638     0.05800
C158        C  0.27939760  0.25072431  0.41003164    -0.14700
H159        H  0.30301977  0.25124591  0.43764282     0.07800
H160        H  0.19970977  0.25200216  0.30522489     0.07800
C161        C  0.25624033  0.79949275  0.09678918     0.05800
C162        C  0.23325192  0.80038631  0.14276001     0.05800
C163        C  0.22219180  0.74970464  0.16547987    -0.14700
C164        C  0.23360775  0.69864608  0.14466159     0.05800
C165        C  0.25781865  0.69813206  0.10042005     0.05800
C166        C  0.26826018  0.74833833  0.07694000    -0.14700
H167        H  0.28771503  0.74809309  0.04373367     0.07800
H168        H  0.20296971  0.75030386  0.19887386     0.07800
C169        C  0.78696435  0.85661625  0.21759733    -0.12900
C170        C  0.77670361  0.84811949  0.16909117    -0.28100
H171        H  0.78105226  0.82519573  0.24611306     0.16100
H172        H  0.78217294  0.88091836  0.14172741     0.16700
C173        C  0.78507423  0.13433014  0.35946680    -0.12900
C174        C  0.78750810  0.12090930  0.31010423    -0.28100
H175        H  0.79566118  0.10592719  0.38799752     0.16100
H176        H  0.77544684  0.14869154  0.28202362     0.16700
C177        C  0.21922764  0.85063312  0.17031179    -0.12900
C178        C  0.20472079  0.89620177  0.14859289    -0.28100
H179        H  0.21648412  0.84714059  0.21127240     0.16100
H180        H  0.20533523  0.90075854  0.10774202     0.16700
C181        C  0.22071202  0.14798637  0.32869133    -0.12900
C182        C  0.20870256  0.14394684  0.28025877    -0.28100
H183        H  0.21670589  0.11258624  0.35356090     0.16100
H184        H  0.21301766  0.17852185  0.25453030     0.16700
C185        C  0.05178327  0.02503780  0.12301104    -0.09700
C186        C  0.03015769  0.02589584  0.08679266    -0.11300
C187        C  0.05243928  0.98360498  0.39898715    -0.09700
C188        C  0.07185083  0.98671983  0.35991213    -0.11300
C189        C  0.96483864  0.97619296  0.39761027    -0.09700
C190        C  0.94341452  0.97631968  0.36136191    -0.11300
C191        C  0.92422380  0.01625339  0.12709826    -0.09700
C192        C  0.94268799  0.02086066  0.08770123    -0.11300
C193        C  0.77872804  0.38375922  0.32779260    -0.12900
C194        C  0.79501990  0.33588264  0.34199454    -0.28100
H195        H  0.74745559  0.39261462  0.33589689     0.16100
H196        H  0.82624163  0.32852268  0.33175366     0.16700
C197        C  0.77614148  0.64151923  0.17154899    -0.12900
C198        C  0.78842854  0.63695916  0.21962472    -0.28100
H199        H  0.77978566  0.60652957  0.14618373     0.16100
H200        H  0.78482983  0.67074269  0.24623388     0.16700
C201        C  0.20551822  0.63785126  0.21400690    -0.12900
C202        C  0.21697623  0.64566418  0.16549473    -0.28100
H203        H  0.20938945  0.67035848  0.24185702     0.16100
H204        H  0.21264425  0.61186074  0.13896676     0.16700
C205        C  0.20802040  0.36486392  0.28876688    -0.12900
C206        C  0.21855936  0.35458574  0.33674726    -0.28100
H207        H  0.21371838  0.33459338  0.25924155     0.16100
H208        H  0.21340114  0.38599027  0.36546954     0.16700
C209        C  0.03530002  0.50523721  0.10406112    -0.09700
C210        C  0.05705612  0.50236018  0.13996985    -0.11300
C211        C  0.04178088  0.49528971  0.41493709    -0.09700
C212        C  0.06191351  0.49564961  0.37672715    -0.11300
C213        C  0.93306827  0.51096108  0.38292384    -0.09700
C214        C  0.95468984  0.50949818  0.41911540    -0.11300
C215        C  0.94684103  0.50245555  0.10246466    -0.09700
C216        C  0.92519707  0.49954337  0.13933222    -0.11300
C217        C  0.70973590  0.63265149  0.03780090    -0.12900
C218        C  0.71906884  0.63953483  0.08683841    -0.28100
H219        H  0.71592191  0.66541149  0.01068425     0.16100
H220        H  0.71318010  0.60587318  0.11316616     0.16700
C221        C  0.69321812  0.35523894  0.44392969    -0.12900
C222        C  0.73139157  0.35003826  0.42735219    -0.28100
H223        H  0.67315649  0.31965234  0.44356284     0.16100
H224        H  0.75113529  0.38594214  0.42609984     0.16700
C225        C  0.28273013  0.35469908  0.41056256    -0.12900
C226        C  0.29471114  0.36309583  0.45833713    -0.28100
H227        H  0.28591645  0.38831096  0.38352842     0.16100
H228        H  0.29128002  0.33061342  0.48640821     0.16700
C229        C  0.28633018  0.63614964  0.03337416    -0.12900
C230        C  0.27534541  0.64542990  0.08177027    -0.28100
H231        H  0.28123519  0.66672925  0.00425250     0.16100
H232        H  0.28053716  0.61334429  0.10957748     0.16700
C233        C  0.43553720  0.50800037  0.37239889    -0.09700
C234        C  0.45559488  0.50819096  0.33398183    -0.11300
C235        C  0.43079765  0.49390231  0.11271170    -0.09700
C236        C  0.45195462  0.49436315  0.14928536    -0.11300
C237        C  0.56426668  0.51266167  0.36586864    -0.09700
C238        C  0.54345450  0.51105947  0.32900914    -0.11300
C239        C  0.56155068  0.48794587  0.10853396    -0.09700
C240        C  0.53995517  0.48972714  0.14550396    -0.11300
C241        C  0.71129033  0.10050710  0.42494979    -0.12900
C242        C  0.72437796  0.14732940  0.44667595    -0.28100
H243        H  0.71638611  0.09274439  0.38496743     0.16100
H244        H  0.71688155  0.15439675  0.48635669     0.16700
C245        C  0.70688757  0.85380203  0.03918544    -0.12900
C246        C  0.71794243  0.84664853  0.08748214    -0.28100
H247        H  0.71118964  0.82137272  0.01131484     0.16100
H248        H  0.71356205  0.88029196  0.11418462     0.16700
C249        C  0.27041115  0.84828539  0.06702665    -0.12900
C250        C  0.28645868  0.89405127  0.08715088    -0.28100
H251        H  0.27307367  0.84287300  0.02620720     0.16100
H252        H  0.28568584  0.90069879  0.12776399     0.16700
C253        C  0.28180980  0.14652639  0.41028214    -0.12900
C254        C  0.29660854  0.14098593  0.45729397    -0.28100
H255        H  0.28266678  0.11113321  0.38502972     0.16100
H256        H  0.29560898  0.17527991  0.48370897     0.16700
C257        C  0.45576149  0.01846919  0.15975144    -0.09700
C258        C  0.43507341  0.02103989  0.12275202    -0.11300
C259        C  0.43600161  0.00565898  0.38213282    -0.09700
C260        C  0.45621189  0.00573309  0.34416195    -0.11300
C261        C  0.56190290  0.98242139  0.37954349    -0.09700
C262        C  0.54208640  0.98565551  0.34188520    -0.11300
C263        C  0.56284188  0.99211939  0.12022511    -0.09700
C264        C  0.54173392  0.99455324  0.15739633    -0.11300
C265        C  0.47784609  0.01660627  0.70904269     0.05800
C266        C  0.52016690  0.01837712  0.70848469     0.05800
C267        C  0.54073313  0.01636679  0.75437691    -0.14700
C268        C  0.51970618  0.01127656  0.80054227     0.05800
C269        C  0.47752961  0.00912655  0.80102146     0.05800
C270        C  0.45687046  0.01268211  0.75535845    -0.14700
H271        H  0.42433789  0.01085836  0.75575893     0.07800
H272        H  0.57327730  0.01719183  0.75407336     0.07800
In273      In  0.35756774  0.00366017  0.00575813     1.36900
C274        C  0.41023542  0.99723987  0.93075793     0.81100
O275        O  0.31642668  0.01914485  0.94101362    -0.57300
O276        O  0.32452020  0.08306299  0.99528370    -0.48200
C277        C  0.31962435  0.91179904  0.52901494     0.73800
O278        O  0.32772282  0.92052698  0.01520857    -0.43100
C279        C  0.40828071  0.01030190  0.58322841     0.78500
O280        O  0.38855779  0.95623484  0.94372394    -0.55000
O281        O  0.37671720  0.03818683  0.58005167    -0.45100
O282        O  0.40664844  0.03976474  0.95793649    -0.51400
C283        C  0.30911657  0.06811221  0.95384396     0.88700
O284        O  0.34621361  0.91337593  0.49487488    -0.53300
O285        O  0.41537297  0.97892615  0.54618010    -0.56600
In286      In  0.63699544  0.99028901  0.49991819     1.36900
C287        C  0.58943734  0.00788440  0.57998584     0.81100
O288        O  0.58988313  0.03150527  0.96094662    -0.57300
O289        O  0.61243111  0.95662098  0.92996007    -0.48200
C290        C  0.68908802  0.07377936  0.97439028     0.73800
O291        O  0.66896197  0.07169081  0.49494393    -0.43100
C292        C  0.68620587  0.91584976  0.53798927     0.78500
O293        O  0.61497150  0.04327949  0.56486008    -0.55000
O294        O  0.66743044  0.90705244  0.98241921    -0.45100
O295        O  0.58813232  0.96414238  0.55428624    -0.51400
C296        C  0.58824789  0.99598397  0.92616381     0.88700
O297        O  0.68088879  0.03486288  0.94451537    -0.53300
O298        O  0.69463662  0.96654200  0.53664623    -0.56600
C299        C  0.52048295  0.50079738  0.70050504     0.05800
C300        C  0.47832620  0.50080928  0.69924430     0.05800
C301        C  0.45591852  0.49971341  0.74451910    -0.14700
C302        C  0.47518273  0.49877432  0.79119528     0.05800
C303        C  0.51733617  0.49926075  0.79247938     0.05800
C304        C  0.53976853  0.50019198  0.74719011    -0.14700
H305        H  0.57227706  0.50044835  0.74829404     0.07800
H306        H  0.42340945  0.49960428  0.74340632     0.07800
In307      In  0.36029959  0.50321135  0.49649930     1.36900
C308        C  0.40348327  0.49820793  0.91766042     0.81100
O309        O  0.41088834  0.54120851  0.54033364    -0.57300
O310        O  0.38741437  0.46313334  0.56383470    -0.48200
C311        C  0.31472478  0.58872517  0.52540180     0.73800
O312        O  0.32432314  0.57992194  0.97612247    -0.43100
C313        C  0.30095222  0.41680850  0.97507775     0.78500
O314        O  0.37987475  0.53746294  0.92607440    -0.55000
O315        O  0.33233302  0.42013928  0.51502157    -0.45100
O316        O  0.40157086  0.45937906  0.94931139    -0.51400
C317        C  0.41187758  0.50203771  0.57159431     0.88700
O318        O  0.31569360  0.54431718  0.55006698    -0.53300
O319        O  0.31175453  0.45229544  0.94275989    -0.56600
In320      In  0.64008919  0.50109910  0.98911915     1.36900
C321        C  0.58541816  0.50149620  0.91838023     0.81100
O322        O  0.68046013  0.47515306  0.92531029    -0.57300
O323        O  0.67372913  0.42055669  0.98775538    -0.48200
C324        C  0.68364084  0.57959014  0.51855406     0.73800
O325        O  0.67034860  0.58344384  0.97741534    -0.43100
C326        C  0.58882416  0.49931938  0.57100739     0.78500
O327        O  0.60417356  0.54477284  0.93108039    -0.55000
O328        O  0.61534213  0.46335701  0.56398996    -0.45100
O329        O  0.59354549  0.45859464  0.94291565    -0.51400
C330        C  0.68832343  0.42883138  0.94390341     0.88700
O331        O  0.67844852  0.53631640  0.54450096    -0.53300
O332        O  0.58581237  0.53433810  0.53604484    -0.56600
C333        C  0.97974617  0.50066346  0.55646225     0.05800
C334        C  0.02145730  0.49225540  0.55443736     0.05800
C335        C  0.04128640  0.49051668  0.50735498    -0.14700
C336        C  0.01528237  0.52098791  0.96636992     0.05800
C337        C  0.97311262  0.51963641  0.96544365     0.05800
C338        C  0.95845117  0.50719690  0.51154287    -0.14700
H339        H  0.92627727  0.51331888  0.51323846     0.07800
H340        H  0.07346054  0.48446119  0.50569136     0.07800
In341      In  0.13554259  0.50322988  0.76204126     1.36900
C342        C  0.08933359  0.49007425  0.68167210     0.81100
O343        O  0.07837066  0.48597901  0.80463750    -0.57300
O344        O  0.12002165  0.54306617  0.83652960    -0.48200
C345        C  0.18435147  0.42352710  0.79447901     0.73800
O346        O  0.14672350  0.41925973  0.79597833    -0.43100
C347        C  0.17669857  0.59213542  0.73204359     0.78500
O348        O  0.11698579  0.45679788  0.69166712    -0.55000
O349        O  0.15870870  0.58961758  0.77438835    -0.45100
O350        O  0.08512068  0.52899124  0.71275948    -0.51400
C351        C  0.08675887  0.51800255  0.84058134     0.88700
O352        O  0.19718079  0.46771653  0.77500942    -0.53300
O353        O  0.17427543  0.54881497  0.70565025    -0.56600
In354      In  0.85778583  0.50429492  0.76032847     1.36900
C355        C  0.91126951  0.50159909  0.68527317     0.81100
O356        O  0.81862168  0.54535113  0.70297396    -0.57300
O357        O  0.82559929  0.58449800  0.77390373    -0.48200
C358        C  0.81215821  0.41605113  0.78561853     0.73800
O359        O  0.82221847  0.45240439  0.81717217    -0.43100
C360        C  0.90685409  0.51611224  0.83742825     0.78500
O361        O  0.89135652  0.45951417  0.69888463    -0.55000
O362        O  0.87772426  0.54780846  0.83065566    -0.45100
O363        O  0.90511321  0.54446059  0.71110912    -0.51400
C364        C  0.81156922  0.58700573  0.73004254     0.88700
O365        O  0.82339469  0.42637023  0.74096806    -0.53300
O366        O  0.91145751  0.47899838  0.80445293    -0.56600
C367        C  0.02494658  0.99241235  0.53766139     0.05800
C368        C  0.98270793  0.98918986  0.53616449     0.05800
C369        C  0.96384534  0.98249824  0.48957957    -0.14700
C370        C  0.96616963  0.01867410  0.94842180     0.05800
C371        C  0.00838571  0.01965134  0.94850664     0.05800
C372        C  0.04753527  0.98910642  0.49232014    -0.14700
H373        H  0.08000705  0.99189298  0.49345512     0.07800
H374        H  0.93133246  0.98027851  0.48836379     0.07800
In375      In  0.13466152  0.99988008  0.74964215     1.36900
C376        C  0.08783299  0.00263630  0.66903367     0.81100
O377        O  0.17850375  0.95519263  0.69869855    -0.57300
O378        O  0.15789339  0.91485634  0.76535840    -0.48200
C379        C  0.18445706  0.08001020  0.78116167     0.73800
O380        O  0.16930277  0.07916550  0.73780014    -0.43100
C381        C  0.08015510  0.00500858  0.82332057     0.78500
O382        O  0.11299626  0.04037583  0.67849072    -0.55000
O383        O  0.10421643  0.96547622  0.81914979    -0.45100
O384        O  0.08574394  0.96439400  0.70129246    -0.51400
C385        C  0.17865600  0.91206270  0.72529856     0.88700
O386        O  0.17622421  0.03816022  0.80767641    -0.53300
O387        O  0.08290215  0.04099002  0.78903049    -0.56600
In388      In  0.85554711  0.99935155  0.73735452     1.36900
C389        C  0.90254334  0.00413063  0.81774101     0.81100
O390        O  0.91104790  0.96742474  0.69819776    -0.57300
O391        O  0.87664615  0.02736066  0.65998705    -0.48200
C392        C  0.81074493  0.90947007  0.71624133     0.73800
O393        O  0.83372554  0.91281621  0.75342378    -0.43100
C394        C  0.81213413  0.08813939  0.76264800     0.78500
O395        O  0.87385710  0.97013489  0.81424066    -0.55000
O396        O  0.83524345  0.08714681  0.72460395    -0.45100
O397        O  0.90825629  0.03450408  0.77955679    -0.51400
C398        C  0.90702971  0.99683251  0.65934413     0.88700
O399        O  0.80911452  0.95312085  0.69038996    -0.53300
O400        O  0.80890075  0.04262776  0.78544053    -0.56600
C401        C  0.73458686  0.19083137  0.89340414     0.05800
C402        C  0.76089398  0.19472387  0.85109090     0.05800
C403        C  0.77501265  0.24742246  0.83579711    -0.14700
C404        C  0.76334222  0.29599565  0.86165811     0.05800
C405        C  0.73668797  0.29138863  0.90391216     0.05800
C406        C  0.72281209  0.23900786  0.91886557    -0.14700
H407        H  0.70160551  0.23590082  0.95027508     0.07800
H408        H  0.79721014  0.25056336  0.80566112     0.07800
C409        C  0.72317845  0.78851297  0.60771498     0.05800
C410        C  0.75461304  0.79371971  0.64311172     0.05800
C411        C  0.77278814  0.74481555  0.66041416    -0.14700
C412        C  0.76056872  0.69211356  0.64327907     0.05800
C413        C  0.73109717  0.68815491  0.60561767     0.05800
C414        C  0.71194313  0.73628620  0.58989497    -0.14700
H415        H  0.68725766  0.73319184  0.56372608     0.07800
H416        H  0.79775186  0.74735630  0.68599834     0.07800
C417        C  0.25791239  0.20006367  0.90611775     0.05800
C418        C  0.23031505  0.19257100  0.86609060     0.05800
C419        C  0.21262308  0.23973966  0.84497242    -0.14700
C420        C  0.22253564  0.29333715  0.86080985     0.05800
C421        C  0.25159693  0.30088116  0.89857621     0.05800
C422        C  0.26899537  0.25402438  0.92016661    -0.14700
H423        H  0.29174977  0.25944374  0.94869137     0.07800
H424        H  0.18925739  0.23480283  0.81718031     0.07800
C425        C  0.26388277  0.80025542  0.60878360     0.05800
C426        C  0.23311539  0.80083187  0.64622932     0.05800
C427        C  0.21755785  0.75042010  0.66473337    -0.14700
C428        C  0.23219295  0.69924208  0.64771380     0.05800
C429        C  0.26238795  0.69838353  0.60942060     0.05800
C430        C  0.27841841  0.74900233  0.59145303    -0.14700
H431        H  0.30361856  0.74836396  0.56525797     0.07800
H432        H  0.19231919  0.75105802  0.69092031     0.07800
C433        C  0.78942883  0.85731711  0.70388073    -0.12900
C434        C  0.76971488  0.84925822  0.66023940    -0.28100
H435        H  0.79229721  0.82376827  0.73068970     0.16100
H436        H  0.76619432  0.88443923  0.63551807     0.16700
C437        C  0.77703870  0.14308038  0.82759020    -0.12900
C438        C  0.79238089  0.13926332  0.78030920    -0.28100
H439        H  0.77743490  0.10633247  0.85115427     0.16100
H440        H  0.79285400  0.17476653  0.75527781     0.16700
C441        C  0.21494374  0.85384660  0.66348178    -0.12900
C442        C  0.20006025  0.86144024  0.71058088    -0.28100
H443        H  0.21313016  0.88739063  0.63634159     0.16100
H444        H  0.20190235  0.82884432  0.73860949     0.16700
C445        C  0.21577495  0.13735679  0.84854639    -0.12900
C446        C  0.20776487  0.12808582  0.79928242    -0.28100
H447        H  0.20902616  0.10563005  0.87651435     0.16100
H448        H  0.21508324  0.15977330  0.77146899     0.16700
C449        C  0.06418895  0.00208345  0.62393601    -0.09700
C450        C  0.04572910  0.99874629  0.58504021    -0.11300
C451        C  0.03162656  0.01470161  0.90232590    -0.09700
C452        C  0.05269506  0.00981562  0.86522676    -0.11300
C453        C  0.94441319  0.01364286  0.90159334    -0.09700
C454        C  0.92609787  0.00899516  0.86269672    -0.11300
C455        C  0.93499155  0.99534698  0.61732617    -0.09700
C456        C  0.95776596  0.99298232  0.58138277    -0.11300
C457        C  0.79046281  0.36446805  0.79925151    -0.12900
C458        C  0.78252611  0.34991313  0.84758147    -0.28100
H459        H  0.78214780  0.33682475  0.76864779     0.16100
H460        H  0.79003612  0.37850810  0.87782275     0.16700
C461        C  0.78010973  0.64160150  0.66287835    -0.12900
C462        C  0.79030032  0.63598389  0.71168821    -0.28100
H463        H  0.78539241  0.60767121  0.63676210     0.16100
H464        H  0.78425485  0.66894475  0.73854618     0.16700
C465        C  0.19808689  0.64239397  0.71472856    -0.12900
C466        C  0.21353570  0.64709439  0.66746639    -0.28100
H467        H  0.20025516  0.67652955  0.74125227     0.16100
H468        H  0.21192995  0.61172612  0.64221997     0.16700
C469        C  0.21134000  0.38082732  0.81407088    -0.12900
C470        C  0.19713537  0.33869885  0.84228699    -0.28100
H471        H  0.24317989  0.38410232  0.80524664     0.16100
H472        H  0.16501285  0.33463801  0.84906927     0.16700
C473        C  0.04467254  0.48684595  0.59997276    -0.09700
C474        C  0.06489909  0.48557638  0.63747124    -0.11300
C475        C  0.03917106  0.52462030  0.92062444    -0.09700
C476        C  0.06063071  0.52397099  0.88362086    -0.11300
C477        C  0.93209314  0.52065694  0.88062393    -0.09700
C478        C  0.95163794  0.52169620  0.91856389    -0.11300
C479        C  0.95789379  0.50141169  0.60392484    -0.09700
C480        C  0.93783655  0.50132625  0.64219809    -0.11300
C481        C  0.70589596  0.62836937  0.53664275    -0.12900
C482        C  0.71732441  0.63397113  0.58507006    -0.28100
H483        H  0.70956548  0.66272155  0.51051389     0.16100
H484        H  0.71456341  0.59906404  0.61073509     0.16700
C485        C  0.71062109  0.38714100  0.91441756    -0.12900
C486        C  0.72159492  0.33885920  0.93450106    -0.28100
H487        H  0.71485447  0.39487334  0.87425892     0.16100
H488        H  0.71470219  0.33127986  0.97426467     0.16700
C489        C  0.26527748  0.35676833  0.91495895    -0.12900
C490        C  0.27682331  0.36750165  0.96261574    -0.28100
H491        H  0.26912901  0.38859957  0.88644092     0.16100
H492        H  0.27192976  0.33702310  0.99226381     0.16700
C493        C  0.29350199  0.63877433  0.54262711    -0.12900
C494        C  0.27919286  0.64503725  0.59026727    -0.28100
H495        H  0.29181005  0.67263253  0.51587649     0.16100
H496        H  0.28050160  0.61033458  0.61619821     0.16700
C497        C  0.43007118  0.49752861  0.87454030    -0.09700
C498        C  0.45112126  0.49775589  0.83706579    -0.11300
C499        C  0.43793491  0.50223856  0.61406523    -0.09700
C500        C  0.45731340  0.50177317  0.65207974    -0.11300
C501        C  0.55822666  0.50047659  0.87716386    -0.09700
C502        C  0.53834992  0.49948207  0.83960560    -0.11300
C503        C  0.56427229  0.50056806  0.61601020    -0.09700
C504        C  0.54435852  0.50100095  0.65445880    -0.11300
C505        C  0.71139467  0.12384989  0.95892330    -0.12900
C506        C  0.71734866  0.13672596  0.90988752    -0.28100
H507        H  0.72036368  0.15262545  0.98832288     0.16100
H508        H  0.70869119  0.10726350  0.88085362     0.16700
C509        C  0.71316683  0.87541247  0.56056584    -0.12900
C510        C  0.69848740  0.83491546  0.59015351    -0.28100
H511        H  0.74516698  0.87920310  0.55306947     0.16100
H512        H  0.66619822  0.83134343  0.59591870     0.16700
C513        C  0.28237964  0.85326960  0.59034953    -0.12900
C514        C  0.29993772  0.85948331  0.54450162    -0.28100
H515        H  0.28171501  0.88873838  0.61554925     0.16100
H516        H  0.30154404  0.82509908  0.51822931     0.16700
C517        C  0.27522024  0.15545197  0.93761804    -0.12900
C518        C  0.28610764  0.10538171  0.92117507    -0.28100
H519        H  0.28280763  0.16672378  0.97622389     0.16100
H520        H  0.28101528  0.09274560  0.88240385     0.16700
C521        C  0.45510877  0.01602143  0.66291447    -0.09700
C522        C  0.43424343  0.01388555  0.62602779    -0.11300
C523        C  0.43557602  0.99730683  0.88640849    -0.09700
C524        C  0.45498684  0.00191277  0.84773269    -0.11300
C525        C  0.56193059  0.00114632  0.88406407    -0.09700
C526        C  0.54203556  0.00613580  0.84666959    -0.11300
C527        C  0.56400046  0.01589130  0.62382270    -0.09700
C528        C  0.54326996  0.01883002  0.66162559    -0.11300
loop_ 
_geom_bond_atom_site_label_1 
_geom_bond_atom_site_label_2 
_geom_bond_distance 
_geom_bond_site_symmetry_2 
_ccdc_geom_bond_type 
C1            C2   1.408   1_545  A
C1            C6   1.399       .  A
C1          C257   1.446       .  S
C2            C3   1.400       .  A
C2          C264   1.436       .  S
C3            C4   1.397       .  A
C3            H8   1.085       .  S
C4            C5   1.406   1_565  A
C4          C262   1.444       .  S
C5            C6   1.400       .  A
C5          C260   1.435       .  S
C6            H7   1.085       .  S
In9          O11   2.276       .  S
In9          O12   2.253       .  S
In9          O14   2.266   1_545  S
In9          O16   2.228   1_545  S
In9          O18   2.238       .  S
In9         O284   2.249   1_545  S
In9         O281   2.248       .  S
In9         O285   2.248   1_545  S
C10         C259   1.425       .  S
C10          O16   1.259   1_545  A
C10          O18   1.259       .  A
O11          C19   1.259       .  A
O12          C19   1.258       .  A
C13          O20   1.259       .  A
C13         O278   1.266       .  A
C13         C250   1.475       .  S
O14         C277   1.261       .  A
C15         C258   1.436       .  S
C15          O17   1.266       .  A
C15          O21   1.261   1_545  A
O17        In273   2.252       .  S
C19         C254   1.480       .  S
O20        In273   2.243   1_565  S
O21        In273   2.228   1_565  S
In22         O27   2.248   1_565  S
In22         O29   2.230   1_565  S
In22         O31   2.242       .  S
In22         O34   2.242       .  S
In22        O288   2.244   1_564  S
In22        O289   2.241   1_554  S
In22        O297   2.249   1_564  S
In22        O294   2.257   1_554  S
C23         C263   1.427       .  S
C23          O29   1.259   1_565  A
C23          O31   1.260       .  A
O24        In286   2.236   1_545  S
O24          C32   1.259   1_545  A
O25        In286   2.250       .  S
O25          C32   1.263       .  A
C26          O33   1.261       .  A
C26         O291   1.266       .  A
C26         C241   1.471       .  S
O27         C290   1.257   1_554  A
C28          O34   1.258       .  A
C28         O294   1.259   1_554  A
C28         C245   1.473       .  S
O30        In286   2.250       .  S
O30         C292   1.262       .  A
C32         C261   1.434       .  S
O33        In286   2.237   1_545  S
C35          C36   1.408       .  A
C35          C40   1.400       .  A
C35         C240   1.444       .  S
C36          C37   1.402       .  A
C36         C236   1.442       .  S
C37          C38   1.402       .  A
C37          H42   1.085       .  S
C38          C39   1.409       .  A
C38         C234   1.446       .  S
C39          C40   1.400       .  A
C39         C238   1.442       .  S
C40          H41   1.085       .  S
In43         O45   2.245   1_556  S
In43         O46   2.245   1_556  S
In43         O54   2.241   1_556  S
In43         O51   2.253   1_556  S
In43        O312   2.252       .  S
In43        O314   2.240       .  S
In43        O316   2.247       .  S
In43        O319   2.249       .  S
C44         C233   1.437       .  S
C44          O50   1.259       .  A
C44          O52   1.260       .  A
O45          C53   1.259       .  A
O46          C53   1.259       .  A
C47          O54   1.259       .  A
C47         O312   1.258   1_554  A
C47         C229   1.471       .  S
O48        In307   2.253       .  S
O48         C311   1.256       .  A
C49          O55   1.259       .  A
C49         O315   1.256       .  A
C49         C226   1.477       .  S
O50        In307   2.246       .  S
O51         C313   1.257   1_554  A
O52        In307   2.257       .  S
C53         C235   1.433       .  S
O55        In307   2.257       .  S
In56         O58   2.282       .  S
In56         O59   2.225       .  S
In56         O61   2.237       .  S
In56         O63   2.256       .  S
In56         O65   2.238       .  S
In56        O331   2.247       .  S
In56        O328   2.239       .  S
In56        O332   2.249       .  S
C57         C237   1.432       .  S
C57          O63   1.260       .  A
C57          O65   1.256       .  A
O58          C66   1.260       .  A
O59          C66   1.255       .  A
C60          O67   1.261       .  A
C60         O325   1.259   1_554  A
C60         C217   1.475       .  S
O61         C324   1.261       .  A
C62         C239   1.435       .  S
C62          O64   1.264       .  A
C62          O68   1.259       .  A
O64        In320   2.252   1_554  S
C66         C221   1.469       .  S
O67        In320   2.257   1_554  S
O68        In320   2.231   1_554  S
C69          C70   1.410   1_655  A
C69          C74   1.400       .  A
C69         C215   1.442       .  S
C70          C71   1.399       .  A
C70         C209   1.442       .  S
C71         C336   1.398   1_554  A
C71          H76   1.085       .  S
C72          C73   1.408   1_455  A
C72         C335   1.402       .  A
C72         C211   1.441       .  S
C73         C338   1.400       .  A
C73         C214   1.446       .  S
C74         C337   1.400   1_554  A
C74          H75   1.085       .  S
In77         O79   2.247       .  S
In77         O80   2.240       .  S
In77         O88   2.251       .  S
In77         O82   2.258       .  S
In77         O84   2.251       .  S
In77         O85   2.255       .  S
In77         O86   2.243       .  S
In77         O89   2.252       .  S
C78         C210   1.434       .  S
C78          O84   1.260       .  A
C78          O86   1.258       .  A
O79          C87   1.258       .  A
O80          C87   1.259       .  A
C81          O88   1.259       .  A
C81          O82   1.258       .  A
C81         C205   1.476       .  S
C83          O85   1.258       .  A
C83          O89   1.261       .  A
C83         C201   1.477       .  S
C87         C212   1.431       .  S
In90         O92   2.236       .  S
In90         O93   2.230       .  S
In90        O101   2.263       .  S
In90         O95   2.244       .  S
In90         O97   2.256       .  S
In90         O98   2.251       .  S
In90         O99   2.232       .  S
In90        O102   2.245       .  S
C91         C216   1.434       .  S
C91          O97   1.263       .  A
C91          O99   1.258       .  A
O92         C100   1.263       .  A
O93         C100   1.263       .  A
C94         O101   1.256       .  A
C94          O95   1.260       .  A
C94         C193   1.476       .  S
C96         C213   1.436       .  S
C96          O98   1.260       .  A
C96         O102   1.257       .  A
C100        C198   1.468       .  S
C103        C104   1.408   1_455  A
C103        C108   1.399   1_554  A
C103        C186   1.446       .  S
C104        C105   1.405   1_554  A
C104        C192   1.444       .  S
C105        C370   1.404       .  A
C105        H110   1.085       .  S
C106        C107   1.409   1_655  A
C106        C369   1.401       .  A
C106        C189   1.440       .  S
C107        C372   1.405       .  A
C107        C187   1.454       .  S
C108        C371   1.400       .  A
C108        H109   1.085       .  S
In111       O113   2.266   1_545  S
In111       O114   2.263   1_545  S
In111       O122   2.266       .  S
In111       O116   2.258       .  S
In111       O118   2.249       .  S
In111       O119   2.264   1_545  S
In111       O120   2.247   1_545  S
In111       O123   2.253       .  S
C112        C185   1.437       .  S
C112        O118   1.261       .  A
C112        O120   1.260   1_545  A
O113        C121   1.256       .  A
O114        C121   1.261       .  A
C115        O122   1.258       .  A
C115        O116   1.258       .  A
C115        C182   1.477       .  S
C117        C188   1.445       .  S
C117        O119   1.262       .  A
C117        O123   1.260   1_565  A
C121        C178   1.482       .  S
In124       O126   2.246       .  S
In124       O127   2.247   1_565  S
In124       O135   2.238       .  S
In124       O129   2.260       .  S
In124       O131   2.242       .  S
In124       O132   2.253   1_565  S
In124       O133   2.238   1_565  S
In124       O136   2.262   1_565  S
C125        C190   1.430       .  S
C125        O131   1.260       .  A
C125        O133   1.259   1_565  A
O126        C134   1.260   1_565  A
O127        C134   1.260       .  A
C128        O135   1.258       .  A
C128        O129   1.259       .  A
C128        C169   1.474       .  S
C130        O132   1.257       .  A
C130        O136   1.257       .  A
C130        C174   1.473       .  S
C134        C191   1.435       .  S
C137        C138   1.413       .  A
C137        C142   1.401       .  A
C137        C242   1.487       .  S
C138        C139   1.404       .  A
C138        C173   1.485       .  S
C139        C140   1.404       .  A
C139        H144   1.085       .  S
C140        C141   1.419       .  A
C140        C194   1.486       .  S
C141        C142   1.410       .  A
C141        C222   1.494       .  S
C142        H143   1.084       .  S
C145        C146   1.412       .  A
C145        C150   1.407       .  A
C145        C246   1.490       .  S
C146        C147   1.403       .  A
C146        C170   1.490       .  S
C147        C148   1.409       .  A
C147        H152   1.081       .  S
C148        C149   1.415       .  A
C148        C197   1.491       .  S
C149        C150   1.408       .  A
C149        C218   1.494       .  S
C150        H151   1.081       .  S
C153        C154   1.421       .  A
C153        C158   1.414       .  A
C153        C253   1.502       .  S
C154        C155   1.411       .  A
C154        C181   1.496       .  S
C155        C156   1.404       .  A
C155        H160   1.082       .  S
C156        C157   1.410       .  A
C156        C206   1.490       .  S
C157        C158   1.408       .  A
C157        C225   1.492       .  S
C158        H159   1.081       .  S
C161        C162   1.426       .  A
C161        C166   1.405       .  A
C161        C249   1.489       .  S
C162        C163   1.410       .  A
C162        C177   1.493       .  S
C163        C164   1.407       .  A
C163        H168   1.083       .  S
C164        C165   1.410       .  A
C164        C202   1.494       .  S
C165        C166   1.404       .  A
C165        C230   1.490       .  S
C166        H167   1.083       .  S
C169        C170   1.346       .  D
C169        H171   1.086       .  S
C170        H172   1.087       .  S
C173        C174   1.345       .  D
C173        H175   1.086       .  S
C174        H176   1.087       .  S
C177        C178   1.343       .  D
C177        H179   1.088       .  S
C178        H180   1.085       .  S
C181        C182   1.349       .  D
C181        H183   1.086       .  S
C182        H184   1.086       .  S
C185        C186   1.207       .  T
C187        C188   1.212       .  T
C189        C190   1.203       .  T
C191        C192   1.206       .  T
C193        C194   1.342       .  D
C193        H195   1.085       .  S
C194        H196   1.088       .  S
C197        C198   1.345       .  D
C197        H199   1.086       .  S
C198        H200   1.085       .  S
C201        C202   1.345       .  D
C201        H203   1.085       .  S
C202        H204   1.087       .  S
C205        C206   1.345       .  D
C205        H207   1.086       .  S
C206        H208   1.087       .  S
C209        C210   1.205       .  T
C211        C212   1.204       .  T
C213        C214   1.207       .  T
C215        C216   1.205       .  T
C217        C218   1.346       .  D
C217        H219   1.085       .  S
C218        H220   1.086       .  S
C221        C222   1.347       .  D
C221        H223   1.085       .  S
C222        H224   1.085       .  S
C225        C226   1.344       .  D
C225        H227   1.087       .  S
C226        H228   1.086       .  S
C229        C230   1.344       .  D
C229        H231   1.085       .  S
C230        H232   1.087       .  S
C233        C234   1.207       .  T
C235        C236   1.205       .  T
C237        C238   1.204       .  T
C239        C240   1.206       .  T
C241        C242   1.342       .  D
C241        H243   1.084       .  S
C242        H244   1.088       .  S
C245        C246   1.345       .  D
C245        H247   1.085       .  S
C246        H248   1.087       .  S
C249        C250   1.338       .  D
C249        H251   1.088       .  S
C250        H252   1.085       .  S
C253        C254   1.350       .  D
C253        H255   1.086       .  S
C254        H256   1.085       .  S
C257        C258   1.207       .  T
C259        C260   1.200       .  T
C261        C262   1.205       .  T
C263        C264   1.201       .  T
C265        C266   1.411       .  A
C265        C270   1.403       .  A
C265        C521   1.445       .  S
C266        C267   1.403       .  A
C266        C528   1.448       .  S
C267        C268   1.402       .  A
C267        H272   1.085       .  S
C268        C269   1.406       .  A
C268        C526   1.444       .  S
C269        C270   1.401       .  A
C269        C524   1.445       .  S
C270        H271   1.085       .  S
In273       O275   2.243   1_554  S
In273       O276   2.247   1_554  S
In273       O278   2.248   1_545  S
In273       O280   2.246   1_544  S
In273       O282   2.224   1_554  S
C274        C523   1.434       .  S
C274        O280   1.266       .  A
C274        O282   1.261   1_565  A
O275        C283   1.259       .  A
O276        C283   1.267       .  A
C277        O284   1.255       .  A
C277        C514   1.476       .  S
C279        C522   1.436       .  S
C279        O281   1.261       .  A
C279        O285   1.260   1_545  A
C283        C518   1.478       .  S
In286       O291   2.233   1_565  S
In286       O293   2.260   1_565  S
In286       O295   2.242       .  S
In286       O298   2.246       .  S
C287        C527   1.439       .  S
C287        O293   1.262       .  A
C287        O295   1.258   1_545  A
O288        C296   1.259   1_545  A
O289        C296   1.261       .  A
C290        O297   1.259       .  A
C290        C505   1.470       .  S
C292        O298   1.257       .  A
C292        C509   1.470       .  S
C296        C525   1.433   1_565  S
C299        C300   1.406       .  A
C299        C304   1.399       .  A
C299        C504   1.444       .  S
C300        C301   1.401       .  A
C300        C500   1.439       .  S
C301        C302   1.399       .  A
C301        H306   1.085       .  S
C302        C303   1.406       .  A
C302        C498   1.443       .  S
C303        C304   1.401       .  A
C303        C502   1.437       .  S
C304        H305   1.084       .  S
In307       O309   2.248       .  S
In307       O310   2.235       .  S
In307       O318   2.274       .  S
In307       O315   2.259       .  S
C308        C497   1.433       .  S
C308        O314   1.259       .  A
C308        O316   1.259       .  A
O309        C317   1.259       .  A
O310        C317   1.258       .  A
C311        O318   1.259       .  A
C311        C493   1.478       .  S
C313        O319   1.258       .  A
C313        C490   1.472       .  S
C317        C499   1.429       .  S
In320       O322   2.235       .  S
In320       O323   2.261       .  S
In320       O325   2.244       .  S
In320       O327   2.234       .  S
In320       O329   2.230       .  S
C321        C501   1.427       .  S
C321        O327   1.262       .  A
C321        O329   1.259       .  A
O322        C330   1.257       .  A
O323        C330   1.265       .  A
C324        O331   1.262       .  A
C324        C481   1.471       .  S
C326        C503   1.434       .  S
C326        O328   1.260       .  A
C326        O332   1.260       .  A
C330        C485   1.475       .  S
C333        C334   1.408   1_655  A
C333        C338   1.402       .  A
C333        C479   1.441       .  S
C334        C335   1.400       .  A
C334        C473   1.447       .  S
C335        H340   1.084       .  S
C336        C337   1.406   1_455  A
C336        C475   1.439       .  S
C337        C478   1.441       .  S
C338        H339   1.085       .  S
In341       O343   2.234       .  S
In341       O344   2.246       .  S
In341       O352   2.267       .  S
In341       O346   2.260       .  S
In341       O348   2.262       .  S
In341       O349   2.247       .  S
In341       O350   2.236       .  S
In341       O353   2.240       .  S
C342        C474   1.437       .  S
C342        O348   1.262       .  A
C342        O350   1.257       .  A
O343        C351   1.258       .  A
O344        C351   1.261       .  A
C345        O352   1.256       .  A
C345        O346   1.257       .  A
C345        C469   1.478       .  S
C347        O349   1.262       .  A
C347        O353   1.262       .  A
C347        C465   1.473       .  S
C351        C476   1.430       .  S
In354       O356   2.254       .  S
In354       O357   2.256       .  S
In354       O365   2.259       .  S
In354       O359   2.271       .  S
In354       O361   2.243       .  S
In354       O362   2.241       .  S
In354       O363   2.243       .  S
In354       O366   2.241       .  S
C355        C480   1.431       .  S
C355        O361   1.260       .  A
C355        O363   1.259       .  A
O356        C364   1.258       .  A
O357        C364   1.258       .  A
C358        O365   1.257       .  A
C358        O359   1.258       .  A
C358        C457   1.479       .  S
C360        C477   1.431       .  S
C360        O362   1.260       .  A
C360        O366   1.260       .  A
C364        C462   1.475       .  S
C367        C368   1.410   1_455  A
C367        C372   1.408       .  A
C367        C450   1.447       .  S
C368        C369   1.399       .  A
C368        C456   1.448       .  S
C369        H374   1.085       .  S
C370        C371   1.407   1_655  A
C370        C453   1.448       .  S
C371        C451   1.441       .  S
C372        H373   1.085       .  S
In375       O377   2.257       .  S
In375       O378   2.250       .  S
In375       O386   2.272   1_565  S
In375       O380   2.249   1_565  S
In375       O382   2.253   1_565  S
In375       O383   2.241       .  S
In375       O384   2.249       .  S
In375       O387   2.244   1_565  S
C376        C449   1.438       .  S
C376        O382   1.261       .  A
C376        O384   1.260   1_545  A
O377        C385   1.260       .  A
O378        C385   1.258       .  A
C379        O386   1.258       .  A
C379        O380   1.259       .  A
C379        C446   1.476       .  S
C381        C452   1.431       .  S
C381        O383   1.260   1_545  A
C381        O387   1.259       .  A
C385        C442   1.474       .  S
In388       O390   2.250       .  S
In388       O391   2.254   1_565  S
In388       O399   2.281       .  S
In388       O393   2.249       .  S
In388       O395   2.247       .  S
In388       O396   2.266   1_565  S
In388       O397   2.253   1_565  S
In388       O400   2.259   1_565  S
C389        C454   1.437       .  S
C389        O395   1.259   1_545  A
C389        O397   1.260       .  A
O390        C398   1.260       .  A
O391        C398   1.261   1_545  A
C392        O399   1.261       .  A
C392        O393   1.257       .  A
C392        C433   1.481       .  S
C394        O396   1.257       .  A
C394        O400   1.259       .  A
C394        C438   1.481       .  S
C398        C455   1.439       .  S
C401        C402   1.413       .  A
C401        C406   1.403       .  A
C401        C506   1.488       .  S
C402        C403   1.413       .  A
C402        C437   1.498       .  S
C403        C404   1.415       .  A
C403        H408   1.081       .  S
C404        C405   1.420       .  A
C404        C458   1.492       .  S
C405        C406   1.401       .  A
C405        C486   1.492       .  S
C406        H407   1.084       .  S
C409        C410   1.419       .  A
C409        C414   1.398       .  A
C409        C510   1.480       .  S
C410        C411   1.416       .  A
C410        C434   1.502       .  S
C411        C412   1.412       .  A
C411        H416   1.081       .  S
C412        C413   1.411       .  A
C412        C461   1.490       .  S
C413        C414   1.402       .  A
C413        C482   1.490       .  S
C414        H415   1.084       .  S
C417        C418   1.422       .  A
C417        C422   1.405       .  A
C417        C517   1.491       .  S
C418        C419   1.411       .  A
C418        C445   1.493       .  S
C419        C420   1.401       .  A
C419        H424   1.084       .  S
C420        C421   1.411       .  A
C420        C470   1.483       .  S
C421        C422   1.406       .  A
C421        C489   1.489       .  S
C422        H423   1.084       .  S
C425        C426   1.414       .  A
C425        C430   1.411       .  A
C425        C513   1.497       .  S
C426        C427   1.406       .  A
C426        C441   1.494       .  S
C427        C428   1.408       .  A
C427        H432   1.081       .  S
C428        C429   1.417       .  A
C428        C466   1.493       .  S
C429        C430   1.412       .  A
C429        C494   1.499       .  S
C430        H431   1.081       .  S
C433        C434   1.348       .  D
C433        H435   1.084       .  S
C434        H436   1.083       .  S
C437        C438   1.346       .  D
C437        H439   1.087       .  S
C438        H440   1.085       .  S
C441        C442   1.346       .  D
C441        H443   1.087       .  S
C442        H444   1.086       .  S
C445        C446   1.350       .  D
C445        H447   1.086       .  S
C446        H448   1.086       .  S
C449        C450   1.208   1_545  T
C451        C452   1.204       .  T
C453        C454   1.208       .  T
C455        C456   1.208       .  T
C457        C458   1.346       .  D
C457        H459   1.086       .  S
C458        H460   1.087       .  S
C461        C462   1.346       .  D
C461        H463   1.087       .  S
C462        H464   1.086       .  S
C465        C466   1.348       .  D
C465        H467   1.086       .  S
C466        H468   1.086       .  S
C469        C470   1.342       .  D
C469        H471   1.085       .  S
C470        H472   1.086       .  S
C473        C474   1.207       .  T
C475        C476   1.203       .  T
C477        C478   1.204       .  T
C479        C480   1.204       .  T
C481        C482   1.346       .  D
C481        H483   1.086       .  S
C482        H484   1.086       .  S
C485        C486   1.341       .  D
C485        H487   1.084       .  S
C486        H488   1.087       .  S
C489        C490   1.346       .  D
C489        H491   1.084       .  S
C490        H492   1.086       .  S
C493        C494   1.348       .  D
C493        H495   1.086       .  S
C494        H496   1.086       .  S
C497        C498   1.205       .  T
C499        C500   1.202       .  T
C501        C502   1.201       .  T
C503        C504   1.205       .  T
C505        C506   1.344       .  D
C505        H507   1.086       .  S
C506        H508   1.087       .  S
C509        C510   1.338       .  D
C509        H511   1.085       .  S
C510        H512   1.087       .  S
C513        C514   1.345       .  D
C513        H515   1.086       .  S
C514        H516   1.085       .  S
C517        C518   1.340       .  D
C517        H519   1.088       .  S
C518        H520   1.084       .  S
C521        C522   1.206       .  T
C523        C524   1.206   1_565  T
C525        C526   1.205       .  T
C527        C528   1.208       .  T
