geometry optimzed in LAMMPS
_audit_creation_date              2020-11-30 
_audit_creation_method            'lammps2cif' 
_symmetry_space_group_name_H-M    'P1' 
_symmetry_Int_Tables_number       1 
_symmetry_cell_setting            triclinic 
loop_ 
_symmetry_equiv_pos_as_xyz 
  x,y,z 
_cell_length_a                    30.68881040826044 
_cell_length_b                    31.352104027070105 
_cell_length_c                    30.75014208766205 
_cell_angle_alpha                 90.71566347680762 
_cell_angle_beta                  89.73390731282079 
_cell_angle_gamma                 89.81928878776507 
loop_ 
_atom_site_label 
_atom_site_type_symbol 
_atom_site_fract_x 
_atom_site_fract_y 
_atom_site_fract_z 
_atom_site_charge 
C1          C  0.11515312  0.84693669  0.53765830     0.04120
C2          C  0.08991078  0.84302253  0.49876362     0.04120
C3          C  0.11608565  0.84828075  0.46084311     0.04120
C4          C  0.14931976  0.88107590  0.46175862     0.04120
C5          C  0.15344293  0.90609663  0.50068264     0.04120
C6          C  0.14825480  0.88030348  0.53872803     0.04120
C7          C  0.14871415  0.07141856  0.53724589     0.04120
C8          C  0.15336421  0.04501994  0.49909350     0.04120
C9          C  0.15049040  0.06973777  0.46017402     0.04120
C10         C  0.11899405  0.10454417  0.45950026     0.04120
C11         C  0.09255338  0.11097096  0.49741083     0.04120
C12         C  0.11696703  0.10592917  0.53645099     0.04120
C13         C  0.92590040  0.10325328  0.45705703     0.04120
C14         C  0.95168067  0.10866139  0.49545881     0.04120
C15         C  0.92656438  0.10255473  0.53399322     0.04120
C16         C  0.89532637  0.06797727  0.53372785     0.04120
C17         C  0.89141984  0.04281523  0.49483215     0.04120
C18         C  0.89406149  0.06879899  0.45678448     0.04120
C19         C  0.92468956  0.84165595  0.53361664     0.04120
C20         C  0.94898165  0.83256821  0.49488965     0.04120
C21         C  0.92179256  0.83675425  0.45721538     0.04120
C22         C  0.89753766  0.87734166  0.45620915     0.04120
C23         C  0.89583445  0.90403926  0.49471590     0.04120
C24         C  0.89671116  0.87900481  0.53351862     0.04120
C25         C  0.48373406  0.10185462  0.08528364     0.04120
C26         C  0.52267698  0.10487840  0.05960335     0.04120
C27         C  0.56128718  0.10203725  0.08556546     0.04120
C28         C  0.56078381  0.07452175  0.12310724     0.04120
C29         C  0.52235996  0.05065683  0.13145240     0.04120
C30         C  0.48391167  0.07442795  0.12277990     0.04120
C31         C  0.48443691  0.09651707  0.89449371     0.04120
C32         C  0.52313223  0.10477333  0.91904464     0.04120
C33         C  0.56190786  0.09611906  0.89433968     0.04120
C34         C  0.56160406  0.05986981  0.86466512     0.04120
C35         C  0.52303696  0.03494161  0.86129432     0.04120
C36         C  0.48456801  0.06027066  0.86484084     0.04120
C37         C  0.48383291  0.88834239  0.12877616     0.04120
C38         C  0.52240973  0.91325188  0.13244852     0.04120
C39         C  0.56090037  0.88788809  0.12875272     0.04120
C40         C  0.56112607  0.85201076  0.09848263     0.04120
C41         C  0.52247619  0.84430010  0.07364599     0.04120
C42         C  0.48367313  0.85253625  0.09847473     0.04120
C43         C  0.48430092  0.87436249  0.86954866     0.04120
C44         C  0.52291859  0.89771497  0.86085865     0.04120
C45         C  0.56129249  0.87367691  0.86928804     0.04120
C46         C  0.56157777  0.84628532  0.90684340     0.04120
C47         C  0.52267643  0.84365800  0.93283421     0.04120
C48         C  0.48381888  0.84695334  0.90714514     0.04120
C49         C  0.11642998  0.43484907  0.87105869     0.04120
C50         C  0.09135365  0.47214947  0.86392046     0.04120
C51         C  0.11525662  0.51037778  0.87088905     0.04120
C52         C  0.14831912  0.51117814  0.90423191     0.04120
C53         C  0.15643052  0.47359401  0.92872785     0.04120
C54         C  0.14972709  0.43537914  0.90402160     0.04120
C55         C  0.14965194  0.51379190  0.09301084     0.04120
C56         C  0.15720775  0.47552502  0.06874888     0.04120
C57         C  0.15034334  0.43823770  0.09399088     0.04120
C58         C  0.11746072  0.43870751  0.12774050     0.04120
C59         C  0.09239103  0.47637054  0.13456220     0.04120
C60         C  0.11653677  0.51415715  0.12649385     0.04120
C61         C  0.92794757  0.51246349  0.12549680     0.04120
C62         C  0.95245793  0.47495217  0.13379950     0.04120
C63         C  0.92814123  0.43702263  0.12643374     0.04120
C64         C  0.89596226  0.43619713  0.09237758     0.04120
C65         C  0.88989100  0.47312600  0.06657949     0.04120
C66         C  0.89636047  0.51178080  0.09070578     0.04120
C67         C  0.92840109  0.50706774  0.86527672     0.04120
C68         C  0.95165429  0.46903293  0.85473317     0.04120
C69         C  0.92500149  0.43196888  0.85939480     0.04120
C70         C  0.90074809  0.43040075  0.90024651     0.04120
C71         C  0.89505187  0.46849438  0.92644840     0.04120
C72         C  0.89906209  0.50667482  0.90195508     0.04120
O73         O  0.28342444  0.87854825  0.62928786    -0.73460
O74         O  0.25140666  0.93522681  0.59932343    -0.52370
C75         C  0.25402229  0.89534647  0.60391460     0.80270
O76         O  0.28007178  0.92037201  0.83752823    -0.58060
O77         O  0.34882305  0.94770735  0.83811604    -0.51090
C78         C  0.31637001  0.93006798  0.85590625     0.72290
O79         O  0.18204352  0.90809757  0.72550160    -0.72620
O80         O  0.18153829  0.94505543  0.66221974    -0.53180
C81         C  0.16445003  0.92107552  0.69019063     0.78290
O82         O  0.40284624  0.88597954  0.73027171    -0.57760
O83         O  0.40863185  0.93483078  0.78533671    -0.50880
C84         C  0.41884932  0.89959636  0.76746873     0.74880
Zr85       Zr  0.34573510  0.91090408  0.67465168     2.54710
O86         O  0.36857645  0.83825126  0.65733405    -0.78330
O87         O  0.39594527  0.91487271  0.61330354    -0.91740
Zr88       Zr  0.25041407  0.91767347  0.76403931     2.64680
O89         O  0.26143993  0.84074495  0.76336576    -0.96700
O90         O  0.19254113  0.89935036  0.81480615    -0.78760
O91         O  0.27004689  0.91249878  0.68972653    -0.82120
O92         O  0.32535708  0.91370677  0.74903686    -2.16830
O93         O  0.40185570  0.07302551  0.72690041    -0.65510
O94         O  0.42064897  0.01164282  0.75703014    -0.50070
C95         C  0.42297535  0.05173842  0.75605781     0.73260
O96         O  0.18313362  0.05425755  0.72446740    -0.58410
O97         O  0.18230193  0.01555874  0.66133785    -0.50390
C98         C  0.16525055  0.04015349  0.68950718     0.75070
O99         O  0.27676067  0.03641707  0.83652689    -0.69810
O100        O  0.34970202  0.02835943  0.83085342    -0.48490
C101        C  0.31509151  0.03363410  0.85278078     0.76450
O102        O  0.28415862  0.07752018  0.62665119    -0.65140
O103        O  0.25376697  0.01931642  0.59762017    -0.52340
C104        C  0.25517814  0.05938348  0.60160772     0.74830
Zr105      Zr  0.34656272  0.04621603  0.67156713     2.77540
O106        O  0.37071799  0.11639604  0.64861038    -0.95890
O107        O  0.39677133  0.03546928  0.61089980    -0.76710
Zr108      Zr  0.25197139  0.04661347  0.76215868     2.70070
O109        O  0.26818608  0.12260956  0.76288692    -0.77960
O110        O  0.19464745  0.07574453  0.80886977    -0.97040
Zr111      Zr  0.24889711  0.97928156  0.66148719     2.21500
Zr112      Zr  0.35207391  0.98145205  0.77084460     2.11130
O113        O  0.32717041  0.04902474  0.74695701    -2.45010
O114        O  0.27103339  0.04705093  0.68750015    -0.77750
O115        O  0.37458170  0.97897652  0.69755564    -0.69950
O116        O  0.22454526  0.98170836  0.73486389    -2.30900
O117        O  0.32372130  0.97778742  0.64307373    -2.27110
O118        O  0.27796699  0.98239075  0.79108090    -0.71700
H119        H  0.33581727  0.89029932  0.76621205     0.80290
H120        H  0.19351160  0.98180981  0.73956455     0.81380
H121        H  0.33790885  0.07307325  0.76358087     0.83610
H122        H  0.32750810  0.97674850  0.61187322     0.81210
H123        H  0.17808336  0.92689579  0.82174922     0.44250
H124        H  0.18717463  0.05227896  0.82880210     0.43220
H125        H  0.24287886  0.13587000  0.74839052     0.42900
H126        H  0.36058622  0.13602900  0.67205045     0.40830
H127        H  0.42521576  0.02988123  0.62482479     0.43960
H128        H  0.40855700  0.94384862  0.61527959     0.38750
H129        H  0.35064493  0.82031657  0.67669284     0.44860
H130        H  0.26692504  0.83372886  0.79416659     0.41280
H131        H  0.40283358  0.11589979  0.65150284     0.46200
H132        H  0.37697162  0.91555285  0.58736237     0.44920
H133        H  0.23225752  0.82877571  0.75723762     0.45060
H134        H  0.20961046  0.09707295  0.82743404     0.45410
O135        O  0.11754140  0.23797725  0.63150643    -0.73460
O136        O  0.06036869  0.20783030  0.59891924    -0.52370
C137        C  0.10096598  0.20989737  0.60432485     0.80270
O138        O  0.07346226  0.22386384  0.83956031    -0.58060
O139        O  0.05341088  0.29369330  0.84427781    -0.51090
C140        C  0.06769773  0.25903383  0.86030733     0.72290
O141        O  0.09197260  0.13761622  0.72542172    -0.72620
O142        O  0.05593282  0.13658453  0.66090536    -0.53180
C143        C  0.07979426  0.12010406  0.68961460     0.78290
O144        O  0.10729133  0.35303671  0.73450160    -0.57760
O145        O  0.05185500  0.36507206  0.78263919    -0.50880
C146        C  0.09025531  0.37166943  0.76872941     0.74880
Zr147      Zr  0.08267150  0.29794844  0.67892013     2.54710
O148        O  0.15593538  0.32232467  0.66198767    -0.78330
O149        O  0.07522867  0.34870930  0.62009834    -0.91740
Zr150      Zr  0.08093073  0.20458794  0.76392481     2.64680
O151        O  0.15786222  0.22336675  0.76263369    -0.96700
O152        O  0.11084447  0.14945082  0.81032124    -0.78760
O153        O  0.08510960  0.22381127  0.69038789    -0.82120
O154        O  0.08052448  0.27883503  0.75395585    -2.16830
O155        O  0.92209132  0.35281865  0.72893106    -0.65510
O156        O  0.96090097  0.36006120  0.79155640    -0.50070
C157        C  0.92981861  0.37088404  0.76662932     0.73260
O158        O  0.94462663  0.13397802  0.72229918    -0.58410
O159        O  0.98371820  0.13475131  0.65919393    -0.50390
C160        C  0.95972668  0.11702712  0.68706457     0.75070
O161        O  0.96213237  0.21579383  0.83857755    -0.69810
O162        O  0.97453182  0.28675300  0.84688505    -0.48490
C163        C  0.96721366  0.24965290  0.86171197     0.76450
O164        O  0.91629532  0.23377382  0.62859660    -0.65140
O165        O  0.97625304  0.20617396  0.59795517    -0.52340
C166        C  0.93538370  0.20646240  0.60214502     0.74830
Zr167      Zr  0.94674354  0.29482481  0.67629288     2.77540
O168        O  0.87240821  0.31537866  0.65834010    -0.95890
O169        O  0.95464923  0.34293661  0.61526297    -0.76710
Zr170      Zr  0.94906442  0.20132107  0.76214953     2.70070
O171        O  0.87171259  0.21903015  0.76308214    -0.77960
O172        O  0.91488899  0.14484587  0.80390182    -0.97040
Zr173      Zr  0.01755588  0.20121520  0.66160206     2.21500
Zr174      Zr  0.01071927  0.30221578  0.78012382     2.11130
O175        O  0.94409359  0.27568264  0.75113611    -2.45730
O176        O  0.94790208  0.22069464  0.68845147    -0.77750
O177        O  0.01307788  0.32364035  0.70610992    -0.69950
O178        O  0.01632277  0.17697281  0.73431609    -2.30900
O179        O  0.01601714  0.27478751  0.64594028    -2.27110
O180        O  0.01374372  0.22833359  0.79213075    -0.71700
H181        H  0.10431023  0.28940153  0.77140842     0.80290
H182        H  0.01737457  0.14664934  0.73866127     0.81380
H183        H  0.91886247  0.28633865  0.76672256     0.83610
H184        H  0.01654691  0.27937911  0.61494093     0.81210
H185        H  0.08518085  0.13284660  0.81980684     0.44250
H186        H  0.93904812  0.13162124  0.82023527     0.43220
H187        H  0.85906443  0.20074725  0.73991954     0.42900
H188        H  0.85518527  0.30864008  0.68467419     0.40830
H189        H  0.95742425  0.37154561  0.62895393     0.43960
H190        H  0.04515506  0.35992044  0.62297783     0.38750
H191        H  0.17513944  0.30420070  0.67985282     0.44860
H192        H  0.16586136  0.22646557  0.79367455     0.41280
H193        H  0.87264759  0.34693191  0.65738274     0.46200
H194        H  0.07489408  0.33096563  0.59323812     0.44920
H195        H  0.17284419  0.19693245  0.75275638     0.45060
H196        H  0.89706240  0.15970087  0.82636673     0.45410
O197        O  0.12460103  0.71886022  0.36561083    -0.73460
O198        O  0.06606842  0.74186722  0.40214438    -0.52370
C199        C  0.10656239  0.74399801  0.39464621     0.80270
O200        O  0.07624545  0.74557336  0.16077843    -0.58060
O201        O  0.06141147  0.67516449  0.15353322    -0.51090
C202        C  0.07152535  0.71132129  0.13831314     0.72290
O203        O  0.09423405  0.82412142  0.27890069    -0.72620
O204        O  0.05595764  0.82126926  0.34222402    -0.53180
C205        C  0.08038894  0.83961883  0.31503276     0.78290
O206        O  0.11348892  0.60360816  0.26142592    -0.57760
O207        O  0.06299567  0.60218172  0.20765212    -0.50880
C208        C  0.09755113  0.58861440  0.22496719     0.74880
Zr209      Zr  0.09139511  0.66042122  0.31763264     2.54710
O210        O  0.16688252  0.63925000  0.32846819    -0.78330
O211        O  0.08834951  0.60977983  0.37698051    -0.91740
Zr212      Zr  0.08494394  0.75940312  0.23775895     2.64680
O213        O  0.16278698  0.74414488  0.23524585    -0.96700
O214        O  0.11000666  0.81897897  0.19449534    -0.78760
O215        O  0.08820333  0.73565809  0.31011560    -0.82120
O216        O  0.09053391  0.68482567  0.24447222    -2.16830
O217        O  0.93586150  0.59794691  0.26373881    -0.65510
O218        O  0.97965118  0.60354112  0.20434624    -0.50070
C219        C  0.94875455  0.58612544  0.22471193     0.73260
O220        O  0.94578488  0.82022998  0.28648020    -0.58410
O221        O  0.98385968  0.81995391  0.35000570    -0.50390
C222        C  0.95946354  0.83713678  0.32211150     0.75070
O223        O  0.96216561  0.74438434  0.16412527    -0.69810
O224        O  0.98123222  0.67503811  0.15435887    -0.48490
C225        C  0.96926758  0.71115721  0.14041401     0.76450
O226        O  0.92401548  0.70768774  0.37607020    -0.65140
O227        O  0.96869252  0.76080589  0.39961764    -0.52340
C228        C  0.93248925  0.74138848  0.40037291     0.74830
Zr229      Zr  0.95654796  0.65542732  0.32011888     2.77540
O230        O  0.88206832  0.63285906  0.33458092    -0.95890
O231        O  0.96773900  0.60188270  0.37562934    -0.76710
Zr232      Zr  0.95268900  0.75624362  0.24185420     2.70070
O233        O  0.87615042  0.73598906  0.24244058    -0.77960
O234        O  0.91615748  0.81424163  0.20456297    -0.97040
Zr235      Zr  0.02009650  0.75465029  0.34222407     2.21500
Zr236      Zr  0.02159268  0.66303871  0.21837928     2.11130
O237        O  0.95264545  0.68136343  0.24790249    -2.45730
O238        O  0.95306065  0.73041959  0.31344118    -0.77750
O239        O  0.02444911  0.63312413  0.28855235    -0.69950
O240        O  0.01884605  0.78185503  0.27043214    -2.30900
O241        O  0.02326317  0.67947315  0.35276013    -2.27110
O242        O  0.01874368  0.73658478  0.20813193    -0.71700
H243        H  0.11442580  0.67420971  0.22683928     0.80290
H244        H  0.01837583  0.81239377  0.26768138     0.81380
H245        H  0.92872240  0.66971190  0.23134506     0.83610
H246        H  0.02351994  0.67292259  0.38336822     0.81210
H247        H  0.08309916  0.83469347  0.18694511     0.44250
H248        H  0.93939470  0.82806942  0.18735503     0.43220
H249        H  0.86314252  0.75341194  0.26626494     0.42900
H250        H  0.86602462  0.63953156  0.30762568     0.40830
H251        H  0.97317717  0.57513815  0.35898812     0.43960
H252        H  0.05909226  0.59674551  0.37488127     0.38750
H253        H  0.18366881  0.65756714  0.30848240     0.44860
H254        H  0.16991053  0.74255824  0.20382128     0.41280
H255        H  0.88335430  0.60131152  0.33510827     0.46200
H256        H  0.08718942  0.62765625  0.40373708     0.44920
H257        H  0.17664486  0.77087122  0.24555878     0.45060
H258        H  0.89732758  0.80017377  0.18263996     0.45410
O259        O  0.28541375  0.83120335  0.06907758    -0.73460
O260        O  0.34916367  0.83190294  0.03093070    -0.52370
C261        C  0.31996391  0.84912559  0.05484378     0.80270
O262        O  0.28102997  0.60782735  0.08565912    -0.58060
O263        O  0.22359735  0.60719634  0.03928700    -0.51090
C264        C  0.24396239  0.59252502  0.07147672     0.72290
O265        O  0.38701918  0.72410170  0.09465082    -0.72620
O266        O  0.41058645  0.76358693  0.03821659    -0.53180
C267        C  0.41122093  0.75437938  0.07806995     0.78290
O268        O  0.17123494  0.74861555  0.05636655    -0.57760
O269        O  0.16662344  0.67818654  0.03970797    -0.50880
C270        C  0.15021180  0.71371276  0.05182468     0.74880
Zr271      Zr  0.24788751  0.76403587  0.06407696     2.54710
O272        O  0.25318913  0.74565687  0.14062262    -0.78330
O273        O  0.20241348  0.81656458  0.10195425    -0.91740
Zr274      Zr  0.33326068  0.66795469  0.06453907     2.64680
O275        O  0.34637725  0.65000306  0.14019942    -0.96700
O276        O  0.39276877  0.61706008  0.05532025    -0.78760
O277        O  0.32160643  0.74282192  0.06485217    -0.82120
O278        O  0.25879670  0.68973147  0.06660353    -2.16830
O279        O  0.16997090  0.74784147  0.94303689    -0.65510
O280        O  0.16513284  0.67790102  0.96004055    -0.50070
C281        C  0.14871536  0.71330864  0.94867382     0.73260
O282        O  0.38256447  0.72188399  0.89677811    -0.58410
O283        O  0.41211444  0.74828775  0.95714370    -0.50390
C284        C  0.40937315  0.74791743  0.91635086     0.75070
O285        O  0.27944441  0.60515304  0.90922721    -0.69810
O286        O  0.22179458  0.60711609  0.95584835    -0.48490
C287        C  0.24214731  0.59091233  0.92379677     0.76450
O288        O  0.28401542  0.82920736  0.92361281    -0.65140
O289        O  0.35085950  0.82755522  0.95540582    -0.52340
C290        C  0.32038988  0.84581955  0.93484995     0.74830
Zr291      Zr  0.24640115  0.76219164  0.93114378     2.77540
O292        O  0.24620171  0.74076179  0.85471869    -0.95890
O293        O  0.20287292  0.81672506  0.89581386    -0.76710
Zr294      Zr  0.33172329  0.66567352  0.92898632     2.70070
O295        O  0.34293546  0.64351059  0.85361999    -0.77960
O296        O  0.39251979  0.61637515  0.93687569    -0.97040
Zr297      Zr  0.34803954  0.76405272  0.99599809     2.21500
Zr298      Zr  0.23122598  0.66783897  0.99817372     2.11130
O299        O  0.25734451  0.68774891  0.92885335    -2.45730
O300        O  0.32010744  0.74077203  0.92800800    -0.77750
O301        O  0.21683579  0.74082756  0.99818197    -0.69950
O302        O  0.36339605  0.68952738  0.99635531    -2.30900
O303        O  0.27513732  0.78872643  0.99703154    -2.27110
O304        O  0.30354314  0.64134456  0.99731034    -0.71700
H305        H  0.24259773  0.67798309  0.09061771     0.80290
H306        H  0.39432103  0.68369831  0.99644127     0.81380
H307        H  0.24064714  0.67528635  0.90541551     0.83610
H308        H  0.27049640  0.81906490  0.99661275     0.81210
H309        H  0.38102990  0.59496030  0.03533695     0.44250
H310        H  0.38044010  0.58822081  0.92848943     0.43220
H311        H  0.32228737  0.66130284  0.83703476     0.42900
H312        H  0.21498137  0.73985260  0.84676870     0.40830
H313        H  0.19055887  0.83409755  0.92004596     0.43960
H314        H  0.19885670  0.84017677  0.08116656     0.38750
H315        H  0.27729819  0.76352645  0.15184119     0.44860
H316        H  0.31804225  0.65503004  0.15495795     0.41280
H317        H  0.25789204  0.76574075  0.83918147     0.46200
H318        H  0.22107462  0.82842073  0.12529297     0.44920
H319        H  0.35019642  0.61863207  0.14016355     0.45060
H320        H  0.41272291  0.62356564  0.91288237     0.45410
O321        O  0.09551680  0.13016733  0.27408101    -0.73460
O322        O  0.05470299  0.13160545  0.33606130    -0.52370
C323        C  0.08032485  0.11389194  0.30904927     0.80270
O324        O  0.10998173  0.35129890  0.26284598    -0.58060
O325        O  0.06254328  0.35081586  0.20637801    -0.51090
C326        C  0.09563703  0.36550112  0.22560964     0.72290
O327        O  0.12070903  0.23468706  0.36569349    -0.72620
O328        O  0.06273387  0.20360712  0.39622927    -0.53180
C329        C  0.10352223  0.20662235  0.39197230     0.78290
O330        O  0.07970847  0.21052565  0.15635046    -0.57760
O331        O  0.06230582  0.28061871  0.15200312    -0.50880
C332        C  0.07342890  0.24500055  0.13525486     0.74880
Zr333      Zr  0.08868380  0.19531137  0.23306652     2.54710
O334        O  0.16550426  0.21440864  0.23569160    -0.78330
O335        O  0.12384970  0.14042631  0.18826455    -0.91740
Zr336      Zr  0.08796801  0.29347656  0.31726516     2.64680
O337        O  0.16170302  0.31682169  0.33400738    -0.96700
O338        O  0.07837898  0.34318265  0.37804305    -0.78760
O339        O  0.08893585  0.21870688  0.30622098    -0.82120
O340        O  0.09040777  0.26995978  0.24336063    -2.16830
O341        O  0.96761129  0.20901680  0.15500541    -0.65510
O342        O  0.98190634  0.27967713  0.15131770    -0.50070
C343        C  0.97265460  0.24374876  0.13421951     0.73260
O344        O  0.91786126  0.23315938  0.36287486    -0.58410
O345        O  0.97655848  0.20736120  0.39587713    -0.50390
C346        C  0.93592139  0.20682049  0.39019113     0.75070
O347        O  0.92916393  0.34938847  0.26072172    -0.69810
O348        O  0.98169551  0.35243429  0.20864538    -0.48490
C349        C  0.94612827  0.36505631  0.22524024     0.76450
O350        O  0.94723066  0.12923440  0.27134576    -0.65140
O351        O  0.98431161  0.13209282  0.33518476    -0.52340
C352        C  0.96059549  0.11368511  0.30724423     0.74830
Zr353      Zr  0.95579182  0.19432999  0.23111094     2.77540
O354        O  0.87841246  0.21144505  0.22802172    -0.95890
O355        O  0.92708978  0.13616014  0.18678865    -0.76710
Zr356      Zr  0.95082077  0.29233501  0.31543288     2.70070
O357        O  0.87564798  0.31436803  0.32806261    -0.77960
O358        O  0.95615370  0.34250777  0.37628600    -0.97040
Zr359      Zr  0.02004317  0.19799585  0.33344390     2.21500
Zr360      Zr  0.02135849  0.29034822  0.21658316     2.11130
O361        O  0.95177383  0.26895412  0.24135937    -2.45730
O362        O  0.95173505  0.21752112  0.30427295    -0.77750
O363        O  0.02257399  0.21712342  0.20216125    -0.69950
O364        O  0.01908724  0.27235350  0.34795912    -2.30900
O365        O  0.02185049  0.17057815  0.26119870    -2.27110
O366        O  0.01963173  0.31801646  0.28834996    -0.71700
H367        H  0.11434021  0.28152214  0.22682595     0.80290
H368        H  0.01854648  0.27799009  0.37891548     0.81380
H369        H  0.92827297  0.28018321  0.22410124     0.83610
H370        H  0.02189497  0.14005620  0.25753471     0.81210
H371        H  0.08757729  0.32686436  0.40380999     0.44250
H372        H  0.98511790  0.35587711  0.37277335     0.43220
H373        H  0.85855227  0.29657787  0.30754214     0.42900
H374        H  0.87216017  0.21372321  0.19656847     0.40830
H375        H  0.95311133  0.11945697  0.17776652     0.43960
H376        H  0.10337007  0.11608221  0.18817583     0.38750
H377        H  0.17700485  0.19870512  0.26093435     0.44860
H378        H  0.17875336  0.31000197  0.30738484     0.41280
H379        H  0.86361080  0.18492268  0.23696887     0.46200
H380        H  0.14904379  0.13065197  0.20553152     0.44920
H381        H  0.16015307  0.34836858  0.33496892     0.45060
H382        H  0.93525666  0.36554431  0.36937550     0.45410
O383        O  0.18294682  0.90221079  0.27837973    -0.73460
O384        O  0.18260772  0.94410453  0.33945207    -0.52370
C385        C  0.16537598  0.91805573  0.31311695     0.80270
O386        O  0.40149385  0.88151392  0.26819834    -0.58060
O387        O  0.41988166  0.94150555  0.23470061    -0.51090
C388        C  0.42231353  0.90149663  0.23770330     0.72290
O389        O  0.28501639  0.87866373  0.37107122    -0.72620
O390        O  0.25227274  0.93640940  0.39979918    -0.53180
C391        C  0.25538627  0.89634014  0.39619761     0.78290
O392        O  0.27597115  0.91601701  0.16142917    -0.57760
O393        O  0.34878695  0.92432104  0.16668903    -0.50880
C394        C  0.31445886  0.91842401  0.14499880     0.74880
Zr395      Zr  0.25062471  0.90883895  0.23657750     2.54710
O396        O  0.26448477  0.83232973  0.23663361    -0.78330
O397        O  0.19361741  0.88338984  0.18816136    -0.91740
Zr398      Zr  0.34703212  0.90940429  0.32472308     2.64680
O399        O  0.37197340  0.83959492  0.34820488    -0.96700
O400        O  0.39778086  0.92047381  0.38435983    -0.78760
O401        O  0.27136914  0.90930371  0.31061824    -0.82120
O402        O  0.32610197  0.90577254  0.25013089    -2.16830
O403        O  0.27752741  0.03240793  0.15865679    -0.65510
O404        O  0.34642531  0.00514658  0.15709058    -0.50070
C405        C  0.31354742  0.02223148  0.13960756     0.73260
O406        O  0.28462270  0.07773226  0.36623726    -0.58410
O407        O  0.25922556  0.02020895  0.39914469    -0.50390
C408        C  0.25760482  0.05987071  0.39337029     0.75070
O409        O  0.40334526  0.06819338  0.26336847    -0.69810
O410        O  0.40804546  0.01812211  0.20932929    -0.48490
C411        C  0.41884889  0.05348529  0.22626023     0.76450
O412        O  0.18124460  0.04656365  0.27190374    -0.65140
O413        O  0.18375543  0.01419822  0.33774334    -0.52340
C414        C  0.16490262  0.03521090  0.30849631     0.74830
Zr415      Zr  0.24984815  0.03764658  0.23298271     2.77540
O416        O  0.26051945  0.11456320  0.23229147    -0.95890
O417        O  0.19202081  0.05664444  0.18283206    -0.76710
Zr418      Zr  0.34656084  0.04492474  0.32009623     2.70070
O419        O  0.36828676  0.11833941  0.33447005    -0.77960
O420        O  0.39723204  0.04138219  0.38067806    -0.97040
Zr421      Zr  0.25012418  0.97754727  0.33658010     2.21500
Zr422      Zr  0.35106558  0.97275589  0.22503543     2.11130
O423        O  0.32509549  0.04117813  0.24618651    -2.45730
O424        O  0.27059645  0.04383884  0.30677486    -0.77750
O425        O  0.27682958  0.97229210  0.20620141    -0.69950
O426        O  0.32522178  0.97841642  0.35296108    -2.30900
O427        O  0.22429083  0.97426011  0.26384166    -2.27110
O428        O  0.37484606  0.97615088  0.29754472    -0.71700
H429        H  0.33648378  0.88126366  0.23378767     0.80290
H430        H  0.32982343  0.97959093  0.38401138     0.81380
H431        H  0.33562033  0.06411559  0.22838894     0.83610
H432        H  0.19321178  0.97388634  0.25985966     0.81210
H433        H  0.42591571  0.92656851  0.36985919     0.44250
H434        H  0.40903184  0.01197298  0.37938662     0.43220
H435        H  0.35012653  0.13539424  0.31456195     0.42900
H436        H  0.26278042  0.12160729  0.20105747     0.40830
H437        H  0.17731756  0.02929402  0.17611954     0.43960
H438        H  0.16869439  0.90300837  0.19315344     0.38750
H439        H  0.24800728  0.82191848  0.26212336     0.44860
H440        H  0.36145175  0.81959596  0.32542095     0.41280
H441        H  0.23205700  0.12659276  0.24162769     0.46200
H442        H  0.18437349  0.85602822  0.20088220     0.44920
H443        H  0.40401728  0.83996251  0.34434102     0.45060
H444        H  0.42205808  0.05947714  0.37187419     0.45410
O445        O  0.38541524  0.22932725  0.09688703    -0.73460
O446        O  0.41215611  0.20106851  0.03572428    -0.52370
C447        C  0.41091060  0.20227979  0.07660917     0.80270
O448        O  0.17087444  0.20978437  0.05605294    -0.58060
O449        O  0.16770318  0.27952971  0.03798757    -0.51090
C450        C  0.15037201  0.24472780  0.04982560     0.72290
O451        O  0.28215962  0.12423540  0.07385428    -0.72620
O452        O  0.34887743  0.12421665  0.04127177    -0.53180
C453        C  0.31802661  0.10659489  0.06190113     0.78290
O454        O  0.28335554  0.34682972  0.08852592    -0.57760
O455        O  0.22849970  0.34918041  0.03937934    -0.50880
C456        C  0.24724625  0.36286249  0.07321494     0.74880
Zr457      Zr  0.33512473  0.28645205  0.06590939     2.54710
O458        O  0.35067193  0.30954108  0.14005789    -0.78330
O459        O  0.39590796  0.33534451  0.05701085    -0.91740
Zr460      Zr  0.24669689  0.19280398  0.06757305     2.64680
O461        O  0.24684872  0.21133914  0.14482345    -0.96700
O462        O  0.20167901  0.14075707  0.10482191    -0.78760
O463        O  0.32108621  0.21184602  0.06857949    -0.82120
O464        O  0.26015076  0.26682912  0.06850693    -2.16830
O465        O  0.28150171  0.34152100  0.90739931    -0.65510
O466        O  0.22952047  0.34887418  0.95974035    -0.50070
C467        C  0.24656367  0.35954205  0.92402943     0.73260
O468        O  0.28131278  0.12042724  0.92903501    -0.58410
O469        O  0.34558620  0.11909773  0.96586476    -0.50390
C470        C  0.31591955  0.10210362  0.94286788     0.75070
O471        O  0.16960971  0.21321981  0.93822149    -0.69810
O472        O  0.16997067  0.28306071  0.95830879    -0.48490
C473        C  0.15133669  0.24969509  0.94407547     0.76450
O474        O  0.38921155  0.22639745  0.90071456    -0.65140
O475        O  0.40702089  0.18151965  0.95518687    -0.52340
C476        C  0.41108469  0.19409284  0.91652488     0.74830
Zr477      Zr  0.33400523  0.28202433  0.92977111     2.77540
O478        O  0.34568155  0.29605531  0.85288014    -0.95890
O479        O  0.39265829  0.33385640  0.93522724    -0.76710
Zr480      Zr  0.24493815  0.18879481  0.93467776     2.70070
O481        O  0.24842422  0.20136744  0.85675324    -0.77960
O482        O  0.19797769  0.13198381  0.90760722    -0.97040
Zr483      Zr  0.34638628  0.18708005  0.99982372     2.21500
Zr484      Zr  0.23445434  0.28687105  0.99931518     2.11130
O485        O  0.25911565  0.26235617  0.93039013    -2.45730
O486        O  0.31943021  0.20771376  0.93119252    -0.77750
O487        O  0.30733030  0.31095908  0.99765672    -0.69950
O488        O  0.27298084  0.16450023  0.00125044    -2.30900
O489        O  0.36453848  0.26073186  0.99767910    -2.27110
O490        O  0.21637681  0.21461039  0.00099813    -0.71700
H491        H  0.24382707  0.27995866  0.09202686     0.80290
H492        H  0.26756591  0.13432569  0.00182485     0.81380
H493        H  0.24264336  0.27400295  0.90661128     0.83610
H494        H  0.39562457  0.26530703  0.99644102     0.81210
H495        H  0.18868744  0.12330399  0.08118893     0.44250
H496        H  0.17894830  0.12488317  0.93256245     0.43220
H497        H  0.26354637  0.17589506  0.84465004     0.42900
H498        H  0.31705906  0.29054963  0.83920819     0.40830
H499        H  0.37755157  0.36154530  0.93958092     0.43960
H500        H  0.39259436  0.34661138  0.02727735     0.38750
H501        H  0.32991862  0.29332308  0.15817610     0.44860
H502        H  0.27239835  0.23013036  0.14896175     0.41280
H503        H  0.34951880  0.32733578  0.85118726     0.46200
H504        H  0.42200357  0.31673426  0.05532001     0.44920
H505        H  0.22122465  0.23022341  0.14913847     0.45060
H506        H  0.17834333  0.14581737  0.88651930     0.45410
O507        O  0.86001922  0.04617245  0.27131156    -0.73460
O508        O  0.85890612  0.01134124  0.33578040    -0.52370
C509        C  0.87692179  0.03390662  0.30717317     0.80270
O510        O  0.63908318  0.06630664  0.26417282    -0.58060
O511        O  0.63430558  0.01637931  0.21003926    -0.51090
C512        C  0.62370308  0.05189366  0.22704493     0.72290
O513        O  0.75809712  0.07538970  0.36578168    -0.72620
O514        O  0.78529375  0.01841643  0.39851743    -0.53180
C515        C  0.78592341  0.05807318  0.39248344     0.78290
O516        O  0.76356859  0.03173819  0.15873102    -0.57760
O517        O  0.69535287  0.00329734  0.15743198    -0.50880
C518        C  0.72781773  0.02108746  0.13988148     0.74880
Zr519      Zr  0.79187363  0.03635713  0.23259928     2.54710
O520        O  0.78019826  0.11321021  0.23305207    -0.78330
O521        O  0.84840283  0.05553993  0.18064173    -0.91740
Zr522      Zr  0.69545525  0.04243548  0.32092905     2.64680
O523        O  0.67180241  0.11459703  0.33973452    -0.96700
O524        O  0.64531158  0.03659229  0.38211856    -0.78760
O525        O  0.77122517  0.04191681  0.30668104    -0.82120
O526        O  0.71673255  0.03930514  0.24668598    -2.16830
O527        O  0.76768552  0.91483440  0.16058098    -0.65510
O528        O  0.69475086  0.92272116  0.16661967    -0.50070
C529        C  0.72914998  0.91712001  0.14456384     0.73260
O530        O  0.75873169  0.87610769  0.36954977    -0.58410
O531        O  0.79029294  0.93385814  0.39875407    -0.50390
C532        C  0.78805117  0.89379896  0.39455994     0.75070
O533        O  0.64245264  0.87881624  0.26788282    -0.69810
O534        O  0.62314638  0.93924570  0.23588034    -0.48490
C535        C  0.62141134  0.89915557  0.23791029     0.76450
O536        O  0.86132129  0.90161710  0.27625036    -0.65140
O537        O  0.85978318  0.94260977  0.33797690    -0.52340
C538        C  0.87796658  0.91735143  0.31133191     0.74830
Zr539      Zr  0.79320620  0.90753668  0.23541174     2.77540
O540        O  0.78062596  0.83091626  0.23535487    -0.95890
O541        O  0.85126708  0.88296656  0.18702760    -0.76710
Zr542      Zr  0.69637872  0.90673145  0.32417679     2.70070
O543        O  0.67294338  0.83574814  0.34507394    -0.77960
O544        O  0.64486272  0.91502081  0.38421666    -0.97040
Zr545      Zr  0.79226381  0.97553976  0.33577805     2.21500
Zr546      Zr  0.69155366  0.97086456  0.22528731     2.11130
O547        O  0.71764284  0.90389424  0.24948849    -2.45730
O548        O  0.77210494  0.90728469  0.30952275    -0.77750
O549        O  0.76582597  0.97095023  0.20578034    -0.69950
O550        O  0.71730727  0.97570375  0.35303393    -2.30900
O551        O  0.81834033  0.97304509  0.26284318    -2.27110
O552        O  0.66781237  0.97367818  0.29806328    -0.71700
H553        H  0.70626328  0.06237339  0.22905199     0.80290
H554        H  0.71301699  0.97665626  0.38417574     0.81380
H555        H  0.70757531  0.87944358  0.23305821     0.83610
H556        H  0.84941221  0.97311062  0.25851660     0.81210
H557        H  0.66310395  0.04408868  0.40786930     0.44250
H558        H  0.63602086  0.94539733  0.38368884     0.43220
H559        H  0.69050375  0.81620274  0.32643565     0.42900
H560        H  0.76805805  0.82478051  0.20636568     0.40830
H561        H  0.86685685  0.90929566  0.17883028     0.43960
H562        H  0.87178661  0.03412856  0.18462935     0.38750
H563        H  0.80125148  0.12430817  0.25467951     0.44860
H564        H  0.68116793  0.13201842  0.31474931     0.41280
H565        H  0.81011996  0.81804667  0.23413877     0.46200
H566        H  0.86064339  0.08250761  0.19223898     0.44920
H567        H  0.63961052  0.11400568  0.33785849     0.45060
H568        H  0.61857143  0.89940741  0.37452978     0.45410
O569        O  0.75956511  0.12277112  0.07487896    -0.73460
O570        O  0.69391132  0.12327322  0.04074331    -0.52370
C571        C  0.72391045  0.10552125  0.06231822     0.80270
O572        O  0.76248259  0.34579482  0.08611251    -0.58060
O573        O  0.81831438  0.34681755  0.03744440    -0.51090
C574        C  0.79908102  0.36115133  0.07098483     0.72290
O575        O  0.65903028  0.22961576  0.09591372    -0.72620
O576        O  0.63198075  0.20144195  0.03519918    -0.53180
C577        C  0.63334264  0.20271132  0.07607160     0.78290
O578        O  0.87264093  0.20709929  0.05869747    -0.57760
O579        O  0.87650990  0.27670418  0.04015453    -0.50880
C580        C  0.89345570  0.24178726  0.05217076     0.74880
Zr581      Zr  0.79619632  0.19063980  0.06851830     2.54710
O582        O  0.78965743  0.21323345  0.14435566    -0.78330
O583        O  0.84209021  0.14155036  0.10890218    -0.91740
Zr584      Zr  0.70977172  0.28611737  0.06417205     2.64680
O585        O  0.69128785  0.31021757  0.13759600    -0.96700
O586        O  0.64975245  0.33537254  0.05177290    -0.78760
O587        O  0.72225069  0.21124222  0.06764171    -0.82120
O588        O  0.78427378  0.26496777  0.06804782    -2.16830
O589        O  0.87680315  0.20235718  0.94589578    -0.65510
O590        O  0.87817632  0.27336964  0.96044636    -0.50070
C591        C  0.89631107  0.23818070  0.95004294     0.73260
O592        O  0.65950975  0.22400385  0.89858599    -0.58410
O593        O  0.63713652  0.18295378  0.95450620    -0.50390
C594        C  0.63579538  0.19324585  0.91495317     0.75070
O595        O  0.76781041  0.33773065  0.90510862    -0.69810
O596        O  0.82058568  0.34322548  0.95637015    -0.48490
C597        C  0.80349255  0.35454656  0.92100673     0.76450
O598        O  0.76342323  0.11742231  0.92937303    -0.65140
O599        O  0.69809233  0.11778818  0.96484682    -0.52340
C600        C  0.72796867  0.10008472  0.94218849     0.74830
Zr601      Zr  0.80073795  0.18470096  0.93578944     2.77540
O602        O  0.80214157  0.20055748  0.85843808    -0.95890
O603        O  0.84633383  0.12797140  0.90531519    -0.76710
Zr604      Zr  0.71381925  0.27979845  0.92822794     2.70070
O605        O  0.70400493  0.29538459  0.85154796    -0.77960
O606        O  0.65525981  0.33214589  0.93418354    -0.97040
Zr607      Zr  0.69775481  0.18586745  0.99909072     2.21500
Zr608      Zr  0.81198689  0.28354580  0.99895937     2.11130
O609        O  0.78837419  0.25856507  0.93019682    -2.45730
O610        O  0.72675835  0.20514414  0.93067727    -0.77750
O611        O  0.82803680  0.21089827  0.00214841    -0.69950
O612        O  0.68137109  0.25999349  0.99600691    -2.30900
O613        O  0.77073584  0.16166376  0.00211861    -2.27110
O614        O  0.73959689  0.30913684  0.99599831    -0.71700
H615        H  0.80017358  0.27795173  0.09175032     0.80290
H616        H  0.65039043  0.26527398  0.99448817     0.81380
H617        H  0.80570160  0.26951035  0.90657611     0.83610
H618        H  0.77552514  0.13135032  0.00274576     0.81210
H619        H  0.66246968  0.35779063  0.03325065     0.44250
H620        H  0.67025594  0.36004506  0.93339824     0.43220
H621        H  0.72555244  0.27683473  0.83639259     0.42900
H622        H  0.83266522  0.20891773  0.85251285     0.40830
H623        H  0.85768062  0.11276601  0.93094481     0.43960
H624        H  0.84651801  0.11672305  0.08913641     0.38750
H625        H  0.76579753  0.19553587  0.15613854     0.44860
H626        H  0.71791096  0.30474943  0.15475581     0.41280
H627        H  0.79892656  0.17248438  0.84375399     0.46200
H628        H  0.82335455  0.13076352  0.13261758     0.44920
H629        H  0.68939753  0.34168332  0.13589133     0.45060
H630        H  0.63975211  0.33012640  0.90607719     0.45410
O631        O  0.09913704  0.82092412  0.72211250    -0.73460
O632        O  0.06125481  0.81799727  0.65873338    -0.52370
C633        C  0.08533790  0.83645429  0.68636161     0.80270
O634        O  0.11135151  0.59925684  0.73639643    -0.58060
O635        O  0.06214660  0.60032809  0.79186506    -0.51090
C636        C  0.09567756  0.58513917  0.77327183     0.72290
O637        O  0.12431104  0.71620219  0.63266867    -0.72620
O638        O  0.06556550  0.74097033  0.59927524    -0.53180
C639        C  0.10613446  0.74215883  0.60488227     0.78290
O640        O  0.08057150  0.74357647  0.84003586    -0.57760
O641        O  0.06400375  0.67356261  0.84616636    -0.50880
C642        C  0.07432625  0.70973598  0.86204672     0.74880
Zr643      Zr  0.09139300  0.75612594  0.76323766     2.54710
O644        O  0.16784003  0.73506383  0.76069248    -0.78330
O645        O  0.12774643  0.81035148  0.80736933    -0.91740
Zr646      Zr  0.09142133  0.65696159  0.68102570     2.64680
O647        O  0.16527617  0.63258934  0.66507152    -0.96700
O648        O  0.08252355  0.60699377  0.62048641    -0.78760
O649        O  0.09255701  0.73188705  0.69051108    -0.82120
O650        O  0.09251431  0.68122054  0.75479656    -2.16830
O651        O  0.96894935  0.74661302  0.84114166    -0.65510
O652        O  0.98392994  0.67619497  0.84746347    -0.50070
C653        C  0.97458261  0.71274998  0.86328569     0.73260
O654        O  0.92241163  0.71528998  0.63106270    -0.58410
O655        O  0.98074809  0.74580773  0.60039946    -0.50390
C656        C  0.93993833  0.74249466  0.60423735     0.75070
O657        O  0.93522456  0.59918967  0.73406172    -0.69810
O658        O  0.97851071  0.60401548  0.79363038    -0.48490
C659        C  0.94818522  0.58648126  0.77224998     0.76450
O660        O  0.95111628  0.82313534  0.72236526    -0.65140
O661        O  0.98998768  0.81964965  0.65920672    -0.52340
C662        C  0.96548979  0.83840597  0.68660098     0.74830
Zr663      Zr  0.95823649  0.75874974  0.76426326     2.77540
O664        O  0.88098662  0.74150405  0.76721822    -0.95890
O665        O  0.92729498  0.81834405  0.80562218    -0.76710
Zr666      Zr  0.95476340  0.65889976  0.68179260     2.70070
O667        O  0.87847064  0.63927741  0.67426553    -0.77960
O668        O  0.95954725  0.60888854  0.62072575    -0.97040
Zr669      Zr  0.02408367  0.75281730  0.66253348     2.21500
Zr670      Zr  0.02286774  0.66243020  0.78201796     2.11130
O671        O  0.95416793  0.68390366  0.75530352    -2.45730
O672        O  0.95540634  0.73397777  0.69157070    -0.77750
O673        O  0.02448544  0.73597774  0.79416173    -0.69950
O674        O  0.02322371  0.67816239  0.64938866    -2.30900
O675        O  0.02503326  0.78124727  0.73433372    -2.27110
O676        O  0.02279810  0.63357798  0.71056985    -0.71700
H677        H  0.11608003  0.66953058  0.77164706     0.80290
H678        H  0.02296405  0.67187173  0.61855752     0.81380
H679        H  0.93024909  0.67265157  0.77210096     0.83610
H680        H  0.02524700  0.81181549  0.73746877     0.81210
H681        H  0.09221440  0.62304894  0.59467423     0.44250
H682        H  0.98688222  0.59286047  0.62571234     0.43220
H683        H  0.86301394  0.65793427  0.69553538     0.42900
H684        H  0.87454919  0.73897201  0.79865875     0.40830
H685        H  0.95286640  0.83443425  0.81638690     0.43960
H686        H  0.10742583  0.83494835  0.80815160     0.38750
H687        H  0.18030710  0.75167271  0.73647339     0.44860
H688        H  0.18190555  0.63949235  0.69175205     0.41280
H689        H  0.86601986  0.76806412  0.75851170     0.46200
H690        H  0.15274988  0.81997202  0.78959666     0.44920
H691        H  0.16352041  0.60105844  0.66447790     0.45060
H692        H  0.93617691  0.58789628  0.62617483     0.45410
O693        O  0.75985977  0.07323526  0.62415091    -0.73460
O694        O  0.79056294  0.01507944  0.59468044    -0.52370
C695        C  0.78887590  0.05513355  0.59876593     0.80270
O696        O  0.76738915  0.03439588  0.83390527    -0.58060
O697        O  0.69470059  0.02447520  0.82896678    -0.51090
C698        C  0.72905469  0.03130382  0.85045149     0.72290
O699        O  0.86143597  0.04926475  0.72051298    -0.72620
O700        O  0.86263026  0.01024211  0.65749405    -0.53180
C701        C  0.87955629  0.03477573  0.68558236     0.78290
O702        O  0.64289860  0.06948028  0.72529216    -0.57760
O703        O  0.62438709  0.00872134  0.75698337    -0.50880
C704        C  0.62208109  0.04882414  0.75521259     0.74880
Zr705      Zr  0.69786546  0.04181897  0.66961462     2.54710
O706        O  0.67207710  0.11176437  0.64773567    -0.78330
O707        O  0.64751470  0.03269821  0.60928514    -0.91740
Zr708      Zr  0.79266612  0.04243586  0.75911777     2.64680
O709        O  0.77706071  0.11861536  0.75827932    -0.96700
O710        O  0.84881243  0.07038939  0.80723112    -0.78760
O711        O  0.77342393  0.04268072  0.68462809    -0.82120
O712        O  0.71749600  0.04489589  0.74470920    -2.16830
O713        O  0.64251913  0.88197476  0.72932363    -0.65510
O714        O  0.63588626  0.93189017  0.78334388    -0.50070
C715        C  0.62614343  0.89631237  0.76621866     0.73260
O716        O  0.86367595  0.90531383  0.72197143    -0.58410
O717        O  0.86254369  0.93912026  0.65680183    -0.50390
C718        C  0.88074262  0.91731072  0.68586940     0.75070
O719        O  0.76660458  0.91883523  0.83561679    -0.69810
O720        O  0.69699140  0.94434490  0.83647886    -0.48490
C721        C  0.73016171  0.92823541  0.85435739     0.76450
O722        O  0.76217390  0.87431985  0.62734106    -0.65140
O723        O  0.78979895  0.93178814  0.59561145    -0.52340
C724        C  0.79007364  0.89198109  0.60087736     0.74830
Zr725      Zr  0.69943322  0.90638719  0.67308163     2.77540
O726        O  0.67834647  0.83347480  0.65502688    -0.95890
O727        O  0.64919160  0.91163839  0.61236988    -0.76710
Zr728      Zr  0.79490148  0.91351018  0.76126887     2.70070
O729        O  0.78335342  0.83671196  0.76172766    -0.77960
O730        O  0.85428708  0.89309613  0.80900164    -0.97040
Zr731      Zr  0.79571431  0.97479244  0.65830130     2.21500
Zr732      Zr  0.69298079  0.97753769  0.76900148     2.11130
O733        O  0.71985584  0.90951763  0.74730202    -2.45730
O734        O  0.77518260  0.90812586  0.68720645    -0.77750
O735        O  0.67030624  0.97464999  0.69602873    -0.69950
O736        O  0.82009855  0.97742030  0.73151604    -2.30900
O737        O  0.72077773  0.97321012  0.64110629    -2.27110
O738        O  0.76705989  0.97839145  0.78858383    -0.71700
H739        H  0.70673697  0.06900515  0.76142168     0.80290
H740        H  0.85109399  0.97757253  0.73606355     0.81380
H741        H  0.70945183  0.88631188  0.76480396     0.83610
H742        H  0.71665310  0.97202096  0.60999191     0.81210
H743        H  0.86445077  0.04476956  0.81749986     0.44250
H744        H  0.85757501  0.91754045  0.82940689     0.43220
H745        H  0.80213289  0.82560674  0.73786215     0.42900
H746        H  0.68757514  0.81662992  0.68043071     0.40830
H747        H  0.62060336  0.91772415  0.62619718     0.43960
H748        H  0.63543226  0.00370414  0.61282466     0.38750
H749        H  0.68944828  0.13206953  0.66539858     0.44860
H750        H  0.76472715  0.12492716  0.78747159     0.41280
H751        H  0.64610723  0.83338457  0.65637930     0.46200
H752        H  0.66639518  0.03050768  0.58314803     0.44920
H753        H  0.80603940  0.13241200  0.75845774     0.45060
H754        H  0.84208635  0.86999230  0.82693427     0.45410
O755        O  0.65753703  0.72267961  0.09219401    -0.73460
O756        O  0.63545949  0.76420546  0.03668003    -0.52370
C757        C  0.63374923  0.75362656  0.07614500     0.80270
O758        O  0.87393508  0.74900020  0.05444896    -0.58060
O759        O  0.87942322  0.67835040  0.03900575    -0.51090
C760        C  0.89526481  0.71408245  0.05090564     0.72290
O761        O  0.75882348  0.82998592  0.06877948    -0.72620
O762        O  0.69616515  0.83125105  0.02940863    -0.53180
C763        C  0.72457617  0.84812246  0.05412187     0.78290
O764        O  0.76488367  0.60662501  0.08304407    -0.57760
O765        O  0.82300541  0.60624750  0.03696453    -0.50880
C766        C  0.80222576  0.59133248  0.06891249     0.74880
Zr767      Zr  0.71272600  0.66705090  0.06216500     2.54710
O768        O  0.70147690  0.64915769  0.13815378    -0.78330
O769        O  0.65367836  0.61576935  0.05508852    -0.91740
Zr770      Zr  0.79714888  0.76315095  0.06269691     2.64680
O771        O  0.79369111  0.74276013  0.13882789    -0.96700
O772        O  0.83843053  0.81850915  0.10031167    -0.78760
O773        O  0.72361236  0.74193349  0.06308709    -0.82120
O774        O  0.78698825  0.68878360  0.06460050    -2.16830
O775        O  0.76988421  0.60502017  0.90695545    -0.65510
O776        O  0.82709949  0.60685617  0.95349387    -0.50070
C777        C  0.80712582  0.59057263  0.92148465     0.73260
O778        O  0.76350250  0.82949653  0.92335342    -0.58410
O779        O  0.69573403  0.82725169  0.95371552    -0.50390
C780        C  0.72674274  0.84593671  0.93420897     0.75070
O781        O  0.87702577  0.74818916  0.94293120    -0.69810
O782        O  0.88302283  0.67818475  0.95927454    -0.48490
C783        C  0.89895772  0.71398608  0.94860651     0.76450
O784        O  0.66488318  0.72176874  0.89512815    -0.65140
O785        O  0.63444564  0.74740606  0.95573063    -0.52340
C786        C  0.63749052  0.74742248  0.91495856     0.74830
Zr787      Zr  0.71642765  0.66544468  0.92652302     2.77540
O788        O  0.70570348  0.64557127  0.85050758    -0.95890
O789        O  0.65648062  0.61522300  0.93282161    -0.76710
Zr790      Zr  0.80068024  0.76203557  0.92980838     2.70070
O791        O  0.80055262  0.74108585  0.85326676    -0.77960
O792        O  0.84392358  0.81610432  0.89343771    -0.97040
Zr793      Zr  0.69811648  0.76351755  0.99420207     2.21500
Zr794      Zr  0.81601579  0.66728743  0.99626523     2.11130
O795        O  0.79067551  0.68755605  0.92690339    -2.45730
O796        O  0.72716788  0.74063532  0.92622294    -0.77750
O797        O  0.74373963  0.64088664  0.99492821    -0.69950
O798        O  0.77073952  0.78810183  0.99575295    -2.30900
O799        O  0.68349370  0.68886752  0.99387541    -2.27110
O800        O  0.82940586  0.74039984  0.99683850    -0.71700
H801        H  0.80290101  0.67682334  0.08859349     0.80290
H802        H  0.77521396  0.81844133  0.99598732     0.81380
H803        H  0.80783302  0.67531727  0.90346046     0.83610
H804        H  0.65264620  0.68287713  0.99372324     0.81210
H805        H  0.85163005  0.83551970  0.07677573     0.44250
H806        H  0.86109997  0.82988898  0.91685971     0.43220
H807        H  0.78328996  0.76356997  0.83889518     0.42900
H808        H  0.73432009  0.65063753  0.83651553     0.40830
H809        H  0.67087321  0.58740189  0.93774895     0.43960
H810        H  0.65737451  0.60325236  0.02558307     0.38750
H811        H  0.72138808  0.66842614  0.15423837     0.44860
H812        H  0.82371343  0.74671048  0.14980306     0.41280
H813        H  0.70251259  0.61415509  0.85038550     0.46200
H814        H  0.62693980  0.63340171  0.05327126     0.44920
H815        H  0.77650741  0.76576607  0.15312406     0.45060
H816        H  0.86563908  0.80003308  0.87577420     0.45410
C817        C  0.72445032  0.91579800  0.89722333    -0.11440
C818        C  0.72078371  0.88827200  0.92261312    -0.13000
C819        C  0.96758948  0.71544883  0.90814402    -0.11440
C820        C  0.94303101  0.71534518  0.93767869    -0.13000
C821        C  0.95128678  0.87897397  0.67640862    -0.11440
C822        C  0.92306350  0.90424982  0.67698181    -0.13000
C823        C  0.72376869  0.03726541  0.89518649    -0.11440
C824        C  0.72115228  0.05885695  0.92667324    -0.13000
C825        C  0.72183716  0.03446616  0.09747862    -0.11440
C826        C  0.71829632  0.06303840  0.07335114    -0.13000
C827        C  0.72328429  0.91154960  0.09989757    -0.11440
C828        C  0.71831085  0.88975917  0.06887288    -0.13000
C829        C  0.31929788  0.03543463  0.09703685    -0.11440
C830        C  0.32300814  0.06395222  0.07282810    -0.13000
C831        C  0.08163870  0.24427750  0.09057434    -0.11440
C832        C  0.10642177  0.24520533  0.06125864    -0.13000
C833        C  0.93765791  0.24202258  0.06222916    -0.11440
C834        C  0.96413668  0.24267348  0.08976296    -0.13000
C835        C  0.91879572  0.04742642  0.31628758    -0.11440
C836        C  0.94641422  0.07310111  0.31694924    -0.13000
C837        C  0.09448309  0.07323214  0.31864425    -0.11440
C838        C  0.12263520  0.04795665  0.31773560    -0.13000
C839        C  0.32036637  0.91273018  0.10029374    -0.11440
C840        C  0.32567009  0.89087303  0.06930288    -0.13000
C841        C  0.08119135  0.71229432  0.90683372    -0.11440
C842        C  0.10504045  0.71352095  0.93668801    -0.13000
C843        C  0.91927636  0.90431506  0.32318630    -0.11440
C844        C  0.94603202  0.87856771  0.32988124    -0.13000
C845        C  0.12357204  0.90490982  0.32371280    -0.11440
C846        C  0.09516316  0.88005495  0.32572721    -0.13000
C847        C  0.96144972  0.71414068  0.09589805    -0.11440
C848        C  0.93807499  0.71459410  0.06564057    -0.13000
C849        C  0.10672491  0.71388835  0.06518988    -0.11440
C850        C  0.08124921  0.71316958  0.09398134    -0.13000
C851        C  0.93981408  0.24012755  0.93703324    -0.11440
C852        C  0.96266805  0.24532233  0.90667733    -0.13000
C853        C  0.10826082  0.25455797  0.93032865    -0.11440
C854        C  0.08114973  0.25929617  0.90365157    -0.13000
C855        C  0.94767548  0.07543245  0.67789541    -0.11440
C856        C  0.92153651  0.04833185  0.67716769    -0.13000
C857        C  0.32647749  0.88799393  0.92283006    -0.11440
C858        C  0.32284394  0.91608489  0.89808716    -0.13000
C859        C  0.31987894  0.03825447  0.89759468    -0.11440
C860        C  0.32203482  0.06029974  0.92867916    -0.13000
C861        C  0.12330862  0.05388929  0.68110267    -0.11440
C862        C  0.09548549  0.07952713  0.68086953    -0.13000
C863        C  0.12352150  0.90549177  0.68010603    -0.11440
C864        C  0.09819574  0.87769127  0.67738641    -0.13000
C865        C  0.92947341  0.54908730  0.79541260    -0.14600
C866        C  0.93535860  0.54616828  0.83942838    -0.29770
H867        H  0.91505890  0.52298408  0.77701120     0.14430
H868        H  0.94678557  0.57370709  0.85784984     0.15000
C869        C  0.87321537  0.54503859  0.91461052    -0.14600
C870        C  0.83116792  0.55321108  0.90185037    -0.29770
H871        H  0.88983819  0.56666682  0.93677215     0.14430
H872        H  0.81497374  0.53216389  0.87879994     0.15000
C873        C  0.89503309  0.42575072  0.82086491    -0.14600
C874        C  0.89857104  0.40420402  0.78209350    -0.29770
H875        H  0.86579959  0.44542212  0.82334094     0.14430
H876        H  0.87189847  0.40962870  0.75964369     0.15000
C877        C  0.82964980  0.38852428  0.89922572    -0.14600
C878        C  0.87286156  0.39295755  0.91010363    -0.29770
H879        H  0.81390589  0.41091331  0.87768240     0.14430
H880        H  0.88843056  0.36942914  0.93053474     0.15000
C881        C  0.93361218  0.55048335  0.15436900    -0.14600
C882        C  0.92910647  0.55043796  0.19884187    -0.29770
H883        H  0.94395164  0.57937232  0.13816530     0.14430
H884        H  0.91590457  0.52289655  0.21534498     0.15000
C885        C  0.86975593  0.55006807  0.08081404    -0.14600
C886        C  0.82585444  0.55453905  0.08874133    -0.29770
H887        H  0.88771235  0.57562812  0.06541394     0.14430
H888        H  0.80805395  0.53053620  0.10665405     0.15000
C889        C  0.92555549  0.39905822  0.19862612    -0.14600
C890        C  0.93505877  0.39986330  0.15500005    -0.29770
H891        H  0.90711570  0.42464495  0.21420672     0.14430
H892        H  0.95107978  0.37267093  0.13949091     0.15000
C893        C  0.86818711  0.39822907  0.08476973    -0.14600
C894        C  0.82399445  0.39680031  0.09161679    -0.29770
H895        H  0.88503585  0.37071318  0.07084085     0.14430
H896        H  0.80697975  0.42279351  0.10810314     0.15000
C897        C  0.88617052  0.46906524  0.97578525    -0.11440
C898        C  0.88452453  0.47101910  0.01687142    -0.13000
C899        C  0.10927630  0.55213991  0.15471501    -0.14600
C900        C  0.11813213  0.55391327  0.19835226    -0.29770
H901        H  0.09374220  0.57902196  0.13899889     0.14430
H902        H  0.13608782  0.52850736  0.21398959     0.15000
C903        C  0.17625516  0.55224876  0.08417081    -0.14600
C904        C  0.22021843  0.55596766  0.09142989    -0.29770
H905        H  0.15836987  0.57852243  0.06991212     0.14430
H906        H  0.23803357  0.53130331  0.10837091     0.15000
C907        C  0.11642045  0.40044933  0.20018900    -0.14600
C908        C  0.11005432  0.40118946  0.15599270    -0.29770
H909        H  0.13240931  0.42671614  0.21692879     0.14430
H910        H  0.09668845  0.37336391  0.13946126     0.15000
C911        C  0.22217262  0.39850497  0.09394394    -0.14600
C912        C  0.17819183  0.40026524  0.08649973    -0.29770
H913        H  0.23891152  0.42425582  0.11077895     0.14430
H914        H  0.16155261  0.37293357  0.07229557     0.15000
C915        C  0.00178465  0.47542305  0.14172220    -0.11440
C916        C  0.04290755  0.47599971  0.14194824    -0.13000
C917        C  0.11543653  0.54969544  0.79894104    -0.14600
C918        C  0.10689985  0.54790119  0.84283615    -0.29770
H919        H  0.13335038  0.52426572  0.78249351     0.14430
H920        H  0.09151466  0.57489041  0.85931498     0.15000
C921        C  0.17453337  0.55005673  0.91255840    -0.14600
C922        C  0.21836427  0.55373404  0.90454532    -0.29770
H923        H  0.15656714  0.57660125  0.92703661     0.14430
H924        H  0.23614243  0.52861580  0.88745055     0.15000
C925        C  0.11000017  0.39810922  0.84105124    -0.14600
C926        C  0.11510986  0.40119077  0.79709901    -0.29770
H927        H  0.09500654  0.36995482  0.85479111     0.14430
H928        H  0.13154051  0.42834493  0.78291808     0.15000
C929        C  0.22106803  0.39416591  0.90279471    -0.14600
C930        C  0.17736498  0.39735507  0.91206718    -0.29770
H931        H  0.23751282  0.41823883  0.88374499     0.14430
H932        H  0.16100191  0.37158808  0.92881337     0.15000
C933        C  0.16448376  0.47461659  0.01922200    -0.11440
C934        C  0.16425526  0.47415210  0.97810243    -0.13000
C935        C  0.00144259  0.46876158  0.85276401    -0.11440
C936        C  0.04238565  0.47060440  0.85476932    -0.13000
C937        C  0.59868171  0.87660410  0.83837899    -0.14600
C938        C  0.59505399  0.87235140  0.79405816    -0.29770
H939        H  0.62909790  0.88788869  0.85223924     0.14430
H940        H  0.56589843  0.85895258  0.77953503     0.15000
C941        C  0.59835656  0.81684986  0.91747198    -0.14600
C942        C  0.61107121  0.78167904  0.89335765    -0.29770
H943        H  0.60964451  0.81993061  0.95077081     0.14430
H944        H  0.59999313  0.77724997  0.86014641     0.15000
C945        C  0.44676243  0.87844386  0.83911837    -0.14600
C946        C  0.45018227  0.87514003  0.79462976    -0.29770
H947        H  0.41640617  0.88964649  0.85360571     0.14430
H948        H  0.47925345  0.86176991  0.77947078     0.15000
C949        C  0.43538147  0.78212942  0.89432863    -0.14600
C950        C  0.44703794  0.81780212  0.91790503    -0.29770
H951        H  0.44712364  0.77726255  0.86128627     0.14430
H952        H  0.43526089  0.82128250  0.95110490     0.15000
C953        C  0.59563520  0.89642811  0.16142687    -0.14600
C954        C  0.59720183  0.87764727  0.20146246    -0.29770
H955        H  0.61354536  0.92573441  0.15635584     0.14430
H956        H  0.57885356  0.84879788  0.20768780     0.15000
C957        C  0.60020395  0.82415564  0.09119890    -0.14600
C958        C  0.60331165  0.78179600  0.10200587    -0.29770
H959        H  0.62480252  0.83776420  0.07021423     0.14430
H960        H  0.57992923  0.76760591  0.12406057     0.15000
C961        C  0.44871557  0.89732158  0.16127226    -0.14600
C962        C  0.44727545  0.87951858  0.20178287    -0.29770
H963        H  0.43009719  0.92612014  0.15536891     0.14430
H964        H  0.46623854  0.85113955  0.20871583     0.15000
C965        C  0.44463996  0.82503883  0.09118142    -0.14600
C966        C  0.44078181  0.78323148  0.10365347    -0.29770
H967        H  0.42139996  0.83790809  0.06839596     0.14430
H968        H  0.46296221  0.76976741  0.12723617     0.15000
C969        C  0.52261811  0.83702264  0.98259511    -0.11440
C970        C  0.52260063  0.83716211  0.02385164    -0.13000
C971        C  0.59782319  0.07008767  0.79194960    -0.14600
C972        C  0.59615852  0.05091701  0.83171490    -0.29770
H973        H  0.57976851  0.09930442  0.78624650     0.14430
H974        H  0.61362475  0.02119337  0.83629141     0.15000
C975        C  0.60133031  0.12322535  0.90130860    -0.14600
C976        C  0.60535083  0.16521358  0.88948964    -0.29770
H977        H  0.62540377  0.10955299  0.92279614     0.14430
H978        H  0.58261274  0.17940151  0.86689413     0.15000
C979        C  0.44997133  0.05184906  0.83203298    -0.14600
C980        C  0.44756785  0.07209949  0.79285162    -0.29770
H981        H  0.43264674  0.02204331  0.83619337     0.14430
H982        H  0.46525133  0.10153289  0.78757652     0.15000
C983        C  0.44522229  0.12420553  0.90109174    -0.14600
C984        C  0.44267901  0.16680184  0.89131157    -0.29770
H985        H  0.41920707  0.10984414  0.91986636     0.14430
H986        H  0.46718477  0.18163718  0.87097889     0.15000
C987        C  0.52302090  0.98637879  0.85379329    -0.11440
C988        C  0.52307234  0.94609485  0.85370092    -0.13000
C989        C  0.59760424  0.07174106  0.15446792    -0.14600
C990        C  0.59296150  0.07574787  0.19878692    -0.29770
H991        H  0.62845017  0.06068642  0.14095243     0.14430
H992        H  0.56334635  0.08895633  0.21297992     0.15000
C993        C  0.60749968  0.16838809  0.09810028    -0.14600
C994        C  0.59761477  0.13182452  0.07515956    -0.29770
H995        H  0.59461487  0.17372330  0.13065094     0.14430
H996        H  0.61038590  0.12789602  0.04237768     0.15000
C997        C  0.44658407  0.07180995  0.15377291    -0.14600
C998        C  0.45022748  0.07666217  0.19803801    -0.29770
H999        H  0.41612920  0.06045673  0.14005009     0.14430
H1000       H  0.47936761  0.09026207  0.21238163     0.15000
C1001       C  0.44729233  0.13159508  0.07499814    -0.14600
C1002       C  0.43707660  0.16800350  0.09819880    -0.29770
H1003       H  0.43442065  0.12759049  0.04238095     0.14430
H1004       H  0.44994613  0.17325561  0.13063724     0.15000
C1005       C  0.52243723  0.00227862  0.13906076    -0.11440
C1006       C  0.52245623  0.96195604  0.13940221    -0.13000
C1007       C  0.52302379  0.11182683  0.96876479    -0.11440
C1008       C  0.52292127  0.11181809  0.00997132    -0.13000
C1009       C  0.93265492  0.81424837  0.57195551    -0.14600
C1010       C  0.91481963  0.77466949  0.57839690    -0.29770
H1011       H  0.96244693  0.82242131  0.58843932     0.14430
H1012       H  0.88548063  0.76507268  0.56135865     0.15000
C1013       C  0.86471780  0.89067320  0.56859739    -0.14600
C1014       C  0.82724785  0.86874001  0.57843097    -0.29770
H1015       H  0.86694326  0.92378516  0.57883465     0.14430
H1016       H  0.82313840  0.83593371  0.56757923     0.15000
C1017       C  0.86381203  0.88837322  0.42286640    -0.14600
C1018       C  0.82389276  0.86940606  0.41655283    -0.29770
H1019       H  0.86815756  0.92030942  0.41080960     0.14430
H1020       H  0.81655686  0.83823349  0.42922988     0.15000
C1021       C  0.89288261  0.79789714  0.45005662    -0.14600
C1022       C  0.89752499  0.75895347  0.42938868    -0.29770
H1023       H  0.86276467  0.80036472  0.46865614     0.14430
H1024       H  0.86972415  0.73778456  0.43252343     0.15000
C1025       C  0.91257930  0.17054141  0.57843981    -0.14600
C1026       C  0.93452089  0.13278938  0.57097917    -0.29770
H1027       H  0.88072639  0.17587629  0.56429147     0.14430
H1028       H  0.96689872  0.12934357  0.58419780     0.15000
C1029       C  0.86431949  0.05834824  0.56957726    -0.14600
C1030       C  0.82510833  0.07859324  0.57633338    -0.29770
H1031       H  0.86861429  0.02655862  0.58216660     0.14430
H1032       H  0.81900246  0.10978995  0.56268044     0.15000
C1033       C  0.93476494  0.13356042  0.42091766    -0.14600
C1034       C  0.91249963  0.17079781  0.41273161    -0.29770
H1035       H  0.96810550  0.13110315  0.40968556     0.14430
H1036       H  0.87970598  0.17564939  0.42520692     0.15000
C1037       C  0.86175050  0.05917624  0.42167912    -0.14600
C1038       C  0.82372908  0.08118177  0.41371320    -0.29770
H1039       H  0.86351394  0.02617796  0.41110987     0.14430
H1040       H  0.81955070  0.11371279  0.42547886     0.15000
C1041       C  0.88781693  0.95300602  0.49439697    -0.11440
C1042       C  0.88638649  0.99356129  0.49432163    -0.13000
C1043       C  0.21874308  0.08280652  0.57939115    -0.14600
C1044       C  0.17943971  0.06276667  0.57344005    -0.29770
H1045       H  0.22487830  0.11365431  0.56499469     0.14430
H1046       H  0.17521895  0.03125554  0.58665876     0.15000
C1047       C  0.12639861  0.17490862  0.58110233    -0.14600
C1048       C  0.10673274  0.13609127  0.57327585    -0.29770
H1049       H  0.15825655  0.18171548  0.56744724     0.14430
H1050       H  0.07430346  0.13119447  0.58609941     0.15000
C1051       C  0.12890919  0.17291772  0.41597473    -0.14600
C1052       C  0.11059557  0.13334065  0.42204189    -0.29770
H1053       H  0.15927153  0.18132144  0.43181499     0.14430
H1054       H  0.07951789  0.12683260  0.40725026     0.15000
C1055       C  0.18279949  0.05934629  0.42507598    -0.14600
C1056       C  0.21965442  0.08228516  0.41539167    -0.29770
H1057       H  0.18184485  0.02605843  0.41525984     0.14430
H1058       H  0.22273910  0.11526098  0.42604299     0.15000
C1059       C  0.04263206  0.11722244  0.49631686    -0.11440
C1060       C  0.00134621  0.11654856  0.49561267    -0.13000
C1061       C  0.10544785  0.81524871  0.57268822    -0.14600
C1062       C  0.12891861  0.77896779  0.58250480    -0.29770
H1063       H  0.07143171  0.81616844  0.58214820     0.14430
H1064       H  0.16257730  0.77560884  0.57203372     0.15000
C1065       C  0.17840704  0.88922957  0.57559865    -0.14600
C1066       C  0.21857308  0.87053444  0.58116589    -0.29770
H1067       H  0.17263329  0.92026438  0.59012508     0.14430
H1068       H  0.22621424  0.84014607  0.56561098     0.15000
C1069       C  0.10724515  0.81782082  0.42452396    -0.14600
C1070       C  0.12980126  0.78082889  0.41615891    -0.29770
H1071       H  0.07355407  0.81904964  0.41472696     0.14430
H1072       H  0.16292824  0.77686592  0.42765980     0.15000
C1073       C  0.17999526  0.89072083  0.42556289    -0.14600
C1074       C  0.22015048  0.87205426  0.41942304    -0.29770
H1075       H  0.17418866  0.92179370  0.41195988     0.14430
H1076       H  0.22765699  0.84161416  0.43409500     0.15000
C1077       C  0.16024851  0.95523573  0.50095793    -0.11440
C1078       C  0.16021407  0.99585232  0.50009183    -0.13000
C1079       C  0.99923588  0.83187915  0.49490021    -0.11440
C1080       C  0.04039755  0.83423375  0.49708229    -0.13000
loop_ 
_geom_bond_atom_site_label_1 
_geom_bond_atom_site_label_2 
_geom_bond_distance 
_geom_bond_site_symmetry_2 
_ccdc_geom_bond_type 
C1            C2   1.432       .  A
C1            C6   1.461       .  A
C1         C1061   1.504       .  S
C2            C3   1.424       .  A
C2         C1080   1.546       .  S
C3            C4   1.451       .  A
C3         C1069   1.487       .  S
C4            C5   1.429       .  A
C4         C1073   1.489       .  S
C5            C6   1.439       .  A
C5         C1077   1.555       .  S
C6         C1065   1.491       .  S
C7            C8   1.434       .  A
C7           C12   1.454       .  A
C7         C1044   1.489       .  S
C8            C9   1.437       .  A
C8         C1078   1.556   1_545  S
C9           C10   1.456       .  A
C9         C1055   1.494       .  S
C10          C11   1.429       .  A
C10        C1052   1.495       .  S
C11          C12   1.428       .  A
C11        C1059   1.544       .  S
C12        C1048   1.498       .  S
C13          C14   1.433       .  A
C13          C18   1.459       .  A
C13        C1033   1.496       .  S
C14          C15   1.426       .  A
C14        C1060   1.545   1_655  S
C15          C16   1.449       .  A
C15        C1026   1.493       .  S
C16          C17   1.430       .  A
C16        C1029   1.487       .  S
C17          C18   1.436       .  A
C17        C1042   1.552   1_545  S
C18        C1037   1.498       .  S
C19          C20   1.427       .  A
C19          C24   1.450       .  A
C19        C1009   1.488       .  S
C20          C21   1.438       .  A
C20        C1079   1.542       .  S
C21          C22   1.473       .  A
C21        C1021   1.524       .  S
C22          C23   1.442       .  A
C22        C1017   1.503       .  S
C23          C24   1.437       .  A
C23        C1041   1.554       .  S
C24        C1013   1.496       .  S
C25          C26   1.433       .  A
C25          C30   1.447       .  A
C25        C1001   1.491       .  S
C26          C27   1.435       .  A
C26        C1008   1.544       .  S
C27          C28   1.450       .  A
C27         C994   1.493       .  S
C28          C29   1.423       .  A
C28         C989   1.492       .  S
C29          C30   1.422       .  A
C29        C1005   1.538       .  S
C30         C997   1.490       .  S
C31          C32   1.433       .  A
C31          C36   1.448       .  A
C31         C983   1.493       .  S
C32          C33   1.432       .  A
C32        C1007   1.542       .  S
C33          C34   1.449       .  A
C33         C975   1.495       .  S
C34          C35   1.424       .  A
C34         C972   1.487       .  S
C35          C36   1.424       .  A
C35         C987   1.537   1_545  S
C36         C979   1.490       .  S
C37          C38   1.424       .  A
C37          C42   1.450       .  A
C37         C961   1.490       .  S
C38          C39   1.425       .  A
C38        C1006   1.539       .  S
C39          C40   1.451       .  A
C39         C953   1.491       .  S
C40          C41   1.433       .  A
C40         C957   1.496       .  S
C41          C42   1.433       .  A
C41         C970   1.545       .  S
C42         C965   1.494       .  S
C43          C44   1.421       .  A
C43          C48   1.449       .  A
C43         C945   1.494       .  S
C44          C45   1.423       .  A
C44         C988   1.535       .  S
C45          C46   1.448       .  A
C45         C937   1.490       .  S
C46          C47   1.437       .  A
C46         C941   1.496       .  S
C47          C48   1.438       .  A
C47         C969   1.547       .  S
C48         C950   1.493       .  S
C49          C50   1.418       .  A
C49          C54   1.443       .  A
C49         C925   1.481       .  S
C50          C51   1.422       .  A
C50         C936   1.531       .  S
C51          C52   1.446       .  A
C51         C918   1.490       .  S
C52          C53   1.428       .  A
C52         C921   1.483       .  S
C53          C54   1.427       .  A
C53         C934   1.538       .  S
C54         C930   1.485       .  S
C55          C56   1.423       .  A
C55          C60   1.443       .  A
C55         C903   1.485       .  S
C56          C57   1.427       .  A
C56         C933   1.538       .  S
C57          C58   1.444       .  A
C57         C912   1.478       .  S
C58          C59   1.420       .  A
C58         C908   1.488       .  S
C59          C60   1.423       .  A
C59         C916   1.535       .  S
C60         C899   1.480       .  S
C61          C62   1.420       .  A
C61          C66   1.447       .  A
C61         C881   1.488       .  S
C62          C63   1.422       .  A
C62         C915   1.534   1_655  S
C63          C64   1.443       .  A
C63         C890   1.483       .  S
C64          C65   1.424       .  A
C64         C893   1.483       .  S
C65          C66   1.428       .  A
C65         C898   1.539       .  S
C66         C885   1.485       .  S
C67          C68   1.421       .  A
C67          C72   1.440       .  A
C67         C866   1.485       .  S
C68          C69   1.431       .  A
C68         C935   1.529   1_655  S
C69          C70   1.459       .  A
C69         C873   1.514       .  S
C70          C71   1.442       .  A
C70         C878   1.488       .  S
C71          C72   1.428       .  A
C71         C897   1.540       .  S
C72         C869   1.486       .  S
O73         Zr85   2.576       .  S
O73          C75   1.309       .  A
O74        Zr111   2.345       .  S
O74          C75   1.262       .  A
C75        C1066   1.509       .  S
O76         Zr88   2.441       .  S
O76          C78   1.287       .  A
O77        Zr112   2.337       .  S
O77          C78   1.266       .  A
C78         C858   1.389       .  S
O79         Zr88   2.432       .  S
O79          C81   1.285       .  A
O80        Zr111   2.332       .  S
O80          C81   1.263       .  A
C81         C863   1.384       .  S
O82         Zr85   2.581       .  S
O82          C84   1.314       .  A
O83        Zr112   2.314       .  S
O83          C84   1.266       .  A
C84         C946   1.493       .  S
Zr85         O86   2.433       .  S
Zr85         O87   2.435       .  S
Zr85         O91   2.367       .  S
Zr85         O92   2.369       .  S
Zr85        O115   2.411       .  S
Zr85        O117   2.418       .  S
O86         H129   0.990       .  S
O87         H128   0.990       .  S
O87         H132   0.990       .  S
Zr88         O89   2.434       .  S
Zr88         O90   2.434       .  S
Zr88         O92   2.346       .  S
Zr88         O91   2.364       .  S
Zr88        O116   2.347       .  S
Zr88        O118   2.345       .  S
O89         H130   0.990       .  S
O89         H133   0.990       .  S
O90         H123   0.990       .  S
O91        Zr111   2.367       .  S
O92        Zr112   2.369       .  S
O92         H119   0.965       .  S
O93        Zr105   2.546       .  S
O93          C95   1.299       .  A
O94        Zr112   2.349   1_545  S
O94          C95   1.260       .  A
C95         C980   1.500       .  S
O96        Zr108   2.427       .  S
O96          C98   1.284       .  A
O97        Zr111   2.336   1_545  S
O97          C98   1.263       .  A
C98         C861   1.383       .  S
O99        Zr108   2.438       .  S
O99         C101   1.283       .  A
O100       Zr112   2.346   1_545  S
O100        C101   1.265       .  A
C101        C859   1.392       .  S
O102       Zr105   2.566       .  S
O102        C104   1.306       .  A
O103       Zr111   2.348   1_545  S
O103        C104   1.262       .  A
C104       C1043   1.507       .  S
Zr105       O106   2.436       .  S
Zr105       O107   2.434       .  S
Zr105       O113   2.391       .  S
Zr105       O114   2.367       .  S
Zr105       O117   2.415   1_545  S
Zr105       O115   2.421   1_545  S
O106        H126   0.990       .  S
O106        H131   0.990       .  S
O107        H127   0.990       .  S
Zr108       O109   2.435       .  S
Zr108       O110   2.434       .  S
Zr108       O114   2.367       .  S
Zr108       O113   2.354       .  S
Zr108       O118   2.350   1_545  S
Zr108       O116   2.351   1_545  S
O109        H125   0.990       .  S
O110        H124   0.990       .  S
O110        H134   0.989       .  S
Zr111       O114   2.364   1_565  S
Zr111       O116   2.374       .  S
Zr111       O117   2.363       .  S
Zr112       O113   2.376   1_565  S
Zr112       O115   2.354       .  S
Zr112       O118   2.355       .  S
O113        H121   0.965       .  S
O116        H120   0.963       .  S
O117        H122   0.966       .  S
O135       Zr147   2.590       .  S
O135        C137   1.312       .  A
O136       Zr173   2.339       .  S
O136        C137   1.259       .  A
C137       C1047   1.514       .  S
O138       Zr150   2.405       .  S
O138        C140   1.278       .  A
O139       Zr174   2.391       .  S
O139        C140   1.276       .  A
C140        C854   1.397       .  S
O141       Zr150   2.420       .  S
O141        C143   1.282       .  A
O142       Zr173   2.340       .  S
O142        C143   1.264       .  A
C143        C862   1.382       .  S
O144       Zr147   2.534       .  S
O144        C146   1.304       .  A
O145       Zr174   2.344       .  S
O145        C146   1.270       .  A
C146        C926   1.480       .  S
Zr147       O148   2.433       .  S
Zr147       O149   2.435       .  S
Zr147       O153   2.356       .  S
Zr147       O154   2.392       .  S
Zr147       O177   2.422       .  S
Zr147       O179   2.398       .  S
O148        H191   0.990       .  S
O149        H190   0.990       .  S
O149        H194   0.990       .  S
Zr150       O151   2.435       .  S
Zr150       O152   2.435       .  S
Zr150       O154   2.352       .  S
Zr150       O153   2.351       .  S
Zr150       O178   2.349       .  S
Zr150       O180   2.349       .  S
O151        H192   0.990       .  S
O151        H195   0.990       .  S
O152        H185   0.990       .  S
O153       Zr173   2.365       .  S
O154       Zr174   2.394       .  S
O154        H181   0.965       .  S
O155       Zr167   2.531       .  S
O155        C157   1.307       .  A
O156       Zr174   2.390   1_655  S
O156        C157   1.274       .  A
C157        C874   1.488       .  S
O158       Zr170   2.432       .  S
O158        C160   1.285       .  A
O159       Zr173   2.332   1_655  S
O159        C160   1.263       .  A
C160        C855   1.383       .  S
O161       Zr170   2.423       .  S
O161        C163   1.281       .  A
O162       Zr174   2.385   1_655  S
O162        C163   1.275       .  A
C163        C852   1.397       .  S
O164       Zr167   2.577       .  S
O164        C166   1.309       .  A
O165       Zr173   2.343   1_655  S
O165        C166   1.260       .  A
C166       C1025   1.510       .  S
Zr167       O168   2.436       .  S
Zr167       O169   2.434       .  S
Zr167       O175   2.387       .  S
Zr167       O176   2.359       .  S
Zr167       O179   2.397   1_655  S
Zr167       O177   2.410   1_655  S
O168        H188   0.990       .  S
O168        H193   0.990       .  S
O169        H189   0.990       .  S
Zr170       O171   2.436       .  S
Zr170       O172   2.437       .  S
Zr170       O176   2.354       .  S
Zr170       O175   2.365       .  S
Zr170       O180   2.348   1_655  S
Zr170       O178   2.352   1_655  S
O171        H187   0.990       .  S
O172        H186   0.990       .  S
O172        H196   0.990       .  S
Zr173       O176   2.364   1_455  S
Zr173       O178   2.371       .  S
Zr173       O179   2.363       .  S
Zr174       O175   2.383   1_455  S
Zr174       O177   2.382       .  S
Zr174       O180   2.352       .  S
O175        H183   0.965       .  S
O178        H182   0.962       .  S
O179        H184   0.966       .  S
O197       Zr209   2.555       .  S
O197        C199   1.304       .  A
O198       Zr235   2.363       .  S
O198        C199   1.265       .  A
C199       C1070   1.507       .  S
O200       Zr212   2.417       .  S
O200        C202   1.279       .  A
O201       Zr236   2.369       .  S
O201        C202   1.271       .  A
C202        C850   1.396       .  S
O203       Zr212   2.396       .  S
O203        C205   1.277       .  A
O204       Zr235   2.364       .  S
O204        C205   1.265       .  A
C205        C846   1.384       .  S
O206       Zr209   2.554       .  S
O206        C208   1.308       .  A
O207       Zr236   2.308       .  S
O207        C208   1.264       .  A
C208        C900   1.490       .  S
Zr209       O210   2.433       .  S
Zr209       O211   2.436       .  S
Zr209       O215   2.375       .  S
Zr209       O216   2.386       .  S
Zr209       O239   2.400       .  S
Zr209       O241   2.419       .  S
O210        H253   0.990       .  S
O211        H252   0.990       .  S
O211        H256   0.990       .  S
Zr212       O213   2.436       .  S
Zr212       O214   2.431       .  S
Zr212       O216   2.356       .  S
Zr212       O215   2.357       .  S
Zr212       O240   2.361       .  S
Zr212       O242   2.341       .  S
O213        H254   0.990       .  S
O213        H257   0.990       .  S
O214        H247   0.990       .  S
O215       Zr235   2.378       .  S
O216       Zr236   2.366       .  S
O216        H243   0.966       .  S
O217       Zr229   2.568       .  S
O217        C219   1.311       .  A
O218       Zr236   2.307   1_655  S
O218        C219   1.263       .  A
C219        C882   1.495       .  S
O220       Zr232   2.425       .  S
O220        C222   1.284       .  A
O221       Zr235   2.336   1_655  S
O221        C222   1.265       .  A
C222        C844   1.379       .  S
O223       Zr232   2.430       .  S
O223        C225   1.282       .  A
O224       Zr236   2.364   1_655  S
O224        C225   1.270       .  A
C225        C847   1.395       .  S
O226       Zr229   2.558       .  S
O226        C228   1.314       .  A
O227       Zr235   2.367   1_655  S
O227        C228   1.269       .  A
C228       C1022   1.492       .  S
Zr229       O230   2.435       .  S
Zr229       O231   2.434       .  S
Zr229       O237   2.378       .  S
Zr229       O238   2.365       .  S
Zr229       O241   2.404   1_655  S
Zr229       O239   2.393   1_655  S
O230        H250   0.990       .  S
O230        H255   0.990       .  S
O231        H251   0.990       .  S
Zr232       O233   2.435       .  S
Zr232       O234   2.435       .  S
Zr232       O238   2.355       .  S
Zr232       O237   2.357       .  S
Zr232       O242   2.350   1_655  S
Zr232       O240   2.355   1_655  S
O233        H249   0.990       .  S
O234        H248   0.990       .  S
O234        H258   0.990       .  S
Zr235       O238   2.367   1_455  S
Zr235       O240   2.377       .  S
Zr235       O241   2.385       .  S
Zr236       O237   2.365   1_455  S
Zr236       O239   2.365       .  S
Zr236       O242   2.333       .  S
O237        H245   0.966       .  S
O240        H244   0.962       .  S
O241        H246   0.966       .  S
O259       Zr271   2.407       .  S
O259        C261   1.280       .  A
O260       Zr297   2.371   1_554  S
O260        C261   1.271       .  A
C261        C840   1.389       .  S
O262       Zr274   2.566       .  S
O262        C264   1.310       .  A
O263       Zr298   2.308   1_554  S
O263        C264   1.264       .  A
C264        C904   1.497       .  S
O265       Zr274   2.583       .  S
O265        C267   1.314       .  A
O266       Zr297   2.322   1_554  S
O266        C267   1.263       .  A
C267        C966   1.501       .  S
O268       Zr271   2.415       .  S
O268        C270   1.279       .  A
O269       Zr298   2.373   1_554  S
O269        C270   1.272       .  A
C270        C849   1.395       .  S
Zr271       O272   2.436       .  S
Zr271       O273   2.437       .  S
Zr271       O277   2.356       .  S
Zr271       O278   2.355       .  S
Zr271       O301   2.351   1_554  S
Zr271       O303   2.362   1_554  S
O272        H315   0.990       .  S
O273        H314   0.990       .  S
O273        H318   0.990       .  S
Zr274       O275   2.436       .  S
Zr274       O276   2.435       .  S
Zr274       O278   2.383       .  S
Zr274       O277   2.373       .  S
Zr274       O302   2.394   1_554  S
Zr274       O304   2.404   1_554  S
O275        H316   0.990       .  S
O275        H319   0.990       .  S
O276        H309   0.990       .  S
O277       Zr297   2.368   1_554  S
O278       Zr298   2.366   1_554  S
O278        H305   0.966       .  S
O279       Zr291   2.417       .  S
O279        C281   1.279       .  A
O280       Zr298   2.370       .  S
O280        C281   1.271       .  A
C281        C842   1.392       .  S
O282       Zr294   2.563       .  S
O282        C284   1.305       .  A
O283       Zr297   2.344       .  S
O283        C284   1.258       .  A
C284        C949   1.505       .  S
O285       Zr294   2.558       .  S
O285        C287   1.309       .  A
O286       Zr298   2.312       .  S
O286        C287   1.265       .  A
C287        C922   1.495       .  S
O288       Zr291   2.414       .  S
O288        C290   1.280       .  A
O289       Zr297   2.365       .  S
O289        C290   1.270       .  A
C290        C857   1.390       .  S
Zr291       O292   2.436       .  S
Zr291       O293   2.436       .  S
Zr291       O299   2.357       .  S
Zr291       O300   2.359       .  S
Zr291       O303   2.357       .  S
Zr291       O301   2.354       .  S
O292        H312   0.990       .  S
O292        H317   0.990       .  S
O293        H313   0.990       .  S
Zr294       O295   2.434       .  S
Zr294       O296   2.434       .  S
Zr294       O300   2.381       .  S
Zr294       O299   2.383       .  S
Zr294       O304   2.402       .  S
Zr294       O302   2.404       .  S
O295        H311   0.990       .  S
O296        H310   0.990       .  S
O296        H320   0.990       .  S
Zr297       O300   2.371       .  S
Zr297       O302   2.382       .  S
Zr297       O303   2.365       .  S
Zr298       O299   2.366       .  S
Zr298       O301   2.329       .  S
Zr298       O304   2.367       .  S
O299        H307   0.966       .  S
O302        H306   0.966       .  S
O303        H308   0.962       .  S
O321       Zr333   2.423       .  S
O321        C323   1.282       .  A
O322       Zr359   2.337       .  S
O322        C323   1.263       .  A
C323        C837   1.381       .  S
O324       Zr336   2.572       .  S
O324        C326   1.311       .  A
O325       Zr360   2.306       .  S
O325        C326   1.263       .  A
C326        C907   1.497       .  S
O327       Zr336   2.588       .  S
O327        C329   1.312       .  A
O328       Zr359   2.343       .  S
O328        C329   1.262       .  A
C329       C1051   1.513       .  S
O330       Zr333   2.429       .  S
O330        C332   1.282       .  A
O331       Zr360   2.361       .  S
O331        C332   1.269       .  A
C332        C831   1.396       .  S
Zr333       O334   2.436       .  S
Zr333       O335   2.437       .  S
Zr333       O339   2.357       .  S
Zr333       O340   2.359       .  S
Zr333       O363   2.348       .  S
Zr333       O365   2.359       .  S
O334        H377   0.990       .  S
O335        H376   0.990       .  S
O335        H380   0.990       .  S
Zr336       O337   2.436       .  S
Zr336       O338   2.435       .  S
Zr336       O340   2.381       .  S
Zr336       O339   2.365       .  S
Zr336       O364   2.409       .  S
Zr336       O366   2.409       .  S
O337        H378   0.990       .  S
O337        H381   0.990       .  S
O338        H371   0.990       .  S
O339       Zr359   2.366       .  S
O340       Zr360   2.366       .  S
O340        H367   0.965       .  S
O341       Zr353   2.417       .  S
O341        C343   1.279       .  A
O342       Zr360   2.369   1_655  S
O342        C343   1.271       .  A
C343        C834   1.393       .  S
O344       Zr356   2.581       .  S
O344        C346   1.309       .  A
O345       Zr359   2.348   1_655  S
O345        C346   1.260       .  A
C346       C1034   1.514       .  S
O347       Zr356   2.559       .  S
O347        C349   1.309       .  A
O348       Zr360   2.309   1_655  S
O348        C349   1.263       .  A
C349        C889   1.492       .  S
O350       Zr353   2.414       .  S
O350        C352   1.281       .  A
O351       Zr359   2.343   1_655  S
O351        C352   1.264       .  A
C352        C836   1.382       .  S
Zr353       O354   2.435       .  S
Zr353       O355   2.433       .  S
Zr353       O361   2.360       .  S
Zr353       O362   2.358       .  S
Zr353       O365   2.355   1_655  S
Zr353       O363   2.348   1_655  S
O354        H374   0.990       .  S
O354        H379   0.990       .  S
O355        H375   0.990       .  S
Zr356       O357   2.434       .  S
Zr356       O358   2.436       .  S
Zr356       O362   2.366       .  S
Zr356       O361   2.384       .  S
Zr356       O366   2.411   1_655  S
Zr356       O364   2.410   1_655  S
O357        H373   0.990       .  S
O358        H372   0.990       .  S
O358        H382   0.990       .  S
Zr359       O362   2.366   1_455  S
Zr359       O364   2.368       .  S
Zr359       O365   2.372       .  S
Zr360       O361   2.366   1_455  S
Zr360       O363   2.333       .  S
Zr360       O366   2.361       .  S
O361        H369   0.966       .  S
O364        H368   0.966       .  S
O365        H370   0.962       .  S
O383       Zr395   2.448       .  S
O383        C385   1.288       .  A
O384       Zr421   2.327       .  S
O384        C385   1.262       .  A
C385        C845   1.387       .  S
O386       Zr398   2.551       .  S
O386        C388   1.301       .  A
O387       Zr422   2.347       .  S
O387        C388   1.261       .  A
C388        C962   1.500       .  S
O389       Zr398   2.570       .  S
O389        C391   1.308       .  A
O390       Zr421   2.347       .  S
O390        C391   1.263       .  A
C391       C1074   1.507       .  S
O392       Zr395   2.448       .  S
O392        C394   1.285       .  A
O393       Zr422   2.337       .  S
O393        C394   1.262       .  A
C394        C839   1.395       .  S
Zr395       O396   2.435       .  S
Zr395       O397   2.433       .  S
Zr395       O401   2.367       .  S
Zr395       O402   2.357       .  S
Zr395       O425   2.351       .  S
Zr395       O427   2.346       .  S
O396        H439   0.990       .  S
O397        H438   0.990       .  S
O397        H442   0.989       .  S
Zr398       O399   2.435       .  S
Zr398       O400   2.434       .  S
Zr398       O402   2.386       .  S
Zr398       O401   2.364       .  S
Zr398       O426   2.413       .  S
Zr398       O428   2.420       .  S
O399        H440   0.990       .  S
O399        H443   0.990       .  S
O400        H433   0.990       .  S
O401       Zr421   2.363       .  S
O402       Zr422   2.374       .  S
O402        H429   0.965       .  S
O403       Zr415   2.438       .  S
O403        C405   1.286       .  A
O404       Zr422   2.339   1_545  S
O404        C405   1.266       .  A
C405        C829   1.389       .  S
O406       Zr418   2.571       .  S
O406        C408   1.306       .  A
O407       Zr421   2.348   1_545  S
O407        C408   1.259       .  A
C408       C1056   1.511       .  S
O409       Zr418   2.574       .  S
O409        C411   1.312       .  A
O410       Zr422   2.311   1_545  S
O410        C411   1.265       .  A
C411        C998   1.490       .  S
O412       Zr415   2.431       .  S
O412        C414   1.285       .  A
O413       Zr421   2.335   1_545  S
O413        C414   1.263       .  A
C414        C838   1.383       .  S
Zr415       O416   2.435       .  S
Zr415       O417   2.434       .  S
Zr415       O423   2.349       .  S
Zr415       O424   2.365       .  S
Zr415       O427   2.348   1_545  S
Zr415       O425   2.346   1_545  S
O416        H436   0.990       .  S
O416        H441   0.990       .  S
O417        H437   0.990       .  S
Zr418       O419   2.434       .  S
Zr418       O420   2.436       .  S
Zr418       O424   2.369       .  S
Zr418       O423   2.371       .  S
Zr418       O428   2.414   1_545  S
Zr418       O426   2.419   1_545  S
O419        H435   0.990       .  S
O420        H434   0.990       .  S
O420        H444   0.990       .  S
Zr421       O424   2.367   1_565  S
Zr421       O426   2.362       .  S
Zr421       O427   2.378       .  S
Zr422       O423   2.368   1_565  S
Zr422       O425   2.353       .  S
Zr422       O428   2.351       .  S
O423        H431   0.965       .  S
O426        H430   0.966       .  S
O427        H432   0.962       .  S
O445       Zr457   2.557       .  S
O445        C447   1.303       .  A
O446       Zr483   2.345   1_554  S
O446        C447   1.258       .  A
C447       C1002   1.503       .  S
O448       Zr460   2.414       .  S
O448        C450   1.279       .  A
O449       Zr484   2.377   1_554  S
O449        C450   1.272       .  A
C450        C832   1.392       .  S
O451       Zr460   2.417       .  S
O451        C453   1.281       .  A
O452       Zr483   2.362   1_554  S
O452        C453   1.269       .  A
C453        C830   1.391       .  S
O454       Zr457   2.555       .  S
O454        C456   1.308       .  A
O455       Zr484   2.303   1_554  S
O455        C456   1.262       .  A
C456        C911   1.490       .  S
Zr457       O458   2.433       .  S
Zr457       O459   2.435       .  S
Zr457       O463   2.382       .  S
Zr457       O464   2.385       .  S
Zr457       O487   2.403   1_554  S
Zr457       O489   2.409   1_554  S
O458        H501   0.990       .  S
O459        H500   0.990       .  S
O459        H504   0.990       .  S
Zr460       O461   2.438       .  S
Zr460       O462   2.435       .  S
Zr460       O464   2.358       .  S
Zr460       O463   2.362       .  S
Zr460       O488   2.352       .  S
Zr460       O490   2.361       .  S
O461        H502   0.990       .  S
O461        H505   0.990       .  S
O462        H495   0.990       .  S
O463       Zr483   2.370   1_554  S
O464       Zr484   2.364   1_554  S
O464        H491   0.965       .  S
O465       Zr477   2.564       .  S
O465        C467   1.309       .  A
O466       Zr484   2.311       .  S
O466        C467   1.263       .  A
C467        C929   1.495       .  S
O468       Zr480   2.418       .  S
O468        C470   1.283       .  A
O469       Zr483   2.362       .  S
O469        C470   1.270       .  A
C470        C860   1.388       .  S
O471       Zr480   2.435       .  S
O471        C473   1.282       .  A
O472       Zr484   2.354       .  S
O472        C473   1.268       .  A
C473        C853   1.398       .  S
O474       Zr477   2.577       .  S
O474        C476   1.313       .  A
O475       Zr483   2.312       .  S
O475        C476   1.263       .  A
C476        C984   1.498       .  S
Zr477       O478   2.435       .  S
Zr477       O479   2.434       .  S
Zr477       O485   2.381       .  S
Zr477       O486   2.375       .  S
Zr477       O489   2.394       .  S
Zr477       O487   2.405       .  S
O478        H498   0.990       .  S
O478        H503   0.990       .  S
O479        H499   0.990       .  S
Zr480       O481   2.435       .  S
Zr480       O482   2.436       .  S
Zr480       O486   2.366       .  S
Zr480       O485   2.354       .  S
Zr480       O490   2.349   1_556  S
Zr480       O488   2.359   1_556  S
O481        H497   0.990       .  S
O482        H496   0.990       .  S
O482        H506   0.990       .  S
Zr483       O486   2.367       .  S
Zr483       O488   2.364   1_556  S
Zr483       O489   2.379       .  S
Zr484       O485   2.366       .  S
Zr484       O487   2.363       .  S
Zr484       O490   2.335   1_556  S
O485        H493   0.966       .  S
O488        H492   0.961       .  S
O489        H494   0.966       .  S
O507       Zr519   2.430       .  S
O507        C509   1.284       .  A
O508       Zr545   2.336   1_545  S
O508        C509   1.262       .  A
C509        C835   1.383       .  S
O510       Zr522   2.579       .  S
O510        C512   1.313       .  A
O511       Zr546   2.313   1_545  S
O511        C512   1.265       .  A
C512        C990   1.491       .  S
O513       Zr522   2.582       .  S
O513        C515   1.309       .  A
O514       Zr545   2.346   1_545  S
O514        C515   1.260       .  A
C515       C1038   1.516       .  S
O516       Zr519   2.438       .  S
O516        C518   1.286       .  A
O517       Zr546   2.335   1_545  S
O517        C518   1.265       .  A
C518        C825   1.388       .  S
Zr519       O520   2.435       .  S
Zr519       O521   2.435       .  S
Zr519       O525   2.366       .  S
Zr519       O526   2.346       .  S
Zr519       O549   2.345   1_545  S
Zr519       O551   2.347   1_545  S
O520        H563   0.990       .  S
O521        H562   0.990       .  S
O521        H566   0.989       .  S
Zr522       O523   2.436       .  S
Zr522       O524   2.434       .  S
Zr522       O526   2.372       .  S
Zr522       O525   2.364       .  S
Zr522       O550   2.419   1_545  S
Zr522       O552   2.417   1_545  S
O523        H564   0.990       .  S
O523        H567   0.990       .  S
O524        H557   0.990       .  S
O525       Zr545   2.365   1_545  S
O526       Zr546   2.369   1_545  S
O526        H553   0.965       .  S
O527       Zr539   2.447       .  S
O527        C529   1.285       .  A
O528       Zr546   2.339       .  S
O528        C529   1.263       .  A
C529        C827   1.395       .  S
O530       Zr542   2.565       .  S
O530        C532   1.307       .  A
O531       Zr545   2.350       .  S
O531        C532   1.263       .  A
C532       C1018   1.506       .  S
O533       Zr542   2.549       .  S
O533        C535   1.300       .  A
O534       Zr546   2.348       .  S
O534        C535   1.261       .  A
C535        C954   1.502       .  S
O536       Zr539   2.451       .  S
O536        C538   1.289       .  A
O537       Zr545   2.314       .  S
O537        C538   1.260       .  A
C538        C843   1.383       .  S
Zr539       O540   2.434       .  S
Zr539       O541   2.433       .  S
Zr539       O547   2.360       .  S
Zr539       O548   2.366       .  S
Zr539       O551   2.345       .  S
Zr539       O549   2.352       .  S
O540        H560   0.990       .  S
O540        H565   0.990       .  S
O541        H561   0.990       .  S
Zr542       O543   2.434       .  S
Zr542       O544   2.436       .  S
Zr542       O548   2.365       .  S
Zr542       O547   2.385       .  S
Zr542       O552   2.420       .  S
Zr542       O550   2.417       .  S
O543        H559   0.990       .  S
O544        H558   0.990       .  S
O544        H568   0.990       .  S
Zr545       O548   2.363       .  S
Zr545       O550   2.358       .  S
Zr545       O551   2.378       .  S
Zr546       O547   2.374       .  S
Zr546       O549   2.354       .  S
Zr546       O552   2.351       .  S
O547        H555   0.965       .  S
O550        H554   0.966       .  S
O551        H556   0.962       .  S
O569       Zr581   2.419       .  S
O569        C571   1.281       .  A
O570       Zr607   2.360   1_554  S
O570        C571   1.269       .  A
C571        C826   1.390       .  S
O572       Zr584   2.563       .  S
O572        C574   1.309       .  A
O573       Zr608   2.306   1_554  S
O573        C574   1.263       .  A
C574        C894   1.493       .  S
O575       Zr584   2.562       .  S
O575        C577   1.304       .  A
O576       Zr607   2.346   1_554  S
O576        C577   1.258       .  A
C577        C993   1.505       .  S
O578       Zr581   2.422       .  S
O578        C580   1.281       .  A
O579       Zr608   2.366   1_554  S
O579        C580   1.270       .  A
C580        C833   1.393       .  S
Zr581       O582   2.436       .  S
Zr581       O583   2.438       .  S
Zr581       O587   2.358       .  S
Zr581       O588   2.358       .  S
Zr581       O611   2.354       .  S
Zr581       O613   2.362       .  S
O582        H625   0.990       .  S
O583        H624   0.990       .  S
O583        H628   0.990       .  S
Zr584       O585   2.436       .  S
Zr584       O586   2.434       .  S
Zr584       O588   2.383       .  S
Zr584       O587   2.381       .  S
Zr584       O612   2.409   1_554  S
Zr584       O614   2.404   1_554  S
O585        H626   0.990       .  S
O585        H629   0.990       .  S
O586        H619   0.990       .  S
O587       Zr607   2.370   1_554  S
O588       Zr608   2.365   1_554  S
O588        H615   0.965       .  S
O589       Zr601   2.421       .  S
O589        C591   1.280       .  A
O590       Zr608   2.365       .  S
O590        C591   1.271       .  A
C591        C851   1.394       .  S
O592       Zr604   2.581       .  S
O592        C594   1.314       .  A
O593       Zr607   2.317       .  S
O593        C594   1.263       .  A
C594        C976   1.501       .  S
O595       Zr604   2.567       .  S
O595        C597   1.311       .  A
O596       Zr608   2.312       .  S
O596        C597   1.264       .  A
C597        C877   1.499       .  S
O598       Zr601   2.410       .  S
O598        C600   1.281       .  A
O599       Zr607   2.368       .  S
O599        C600   1.271       .  A
C600        C824   1.389       .  S
Zr601       O602   2.436       .  S
Zr601       O603   2.435       .  S
Zr601       O609   2.354       .  S
Zr601       O610   2.364       .  S
Zr601       O613   2.356   1_556  S
Zr601       O611   2.349   1_556  S
O602        H622   0.990       .  S
O602        H627   0.990       .  S
O603        H623   0.990       .  S
Zr604       O605   2.434       .  S
Zr604       O606   2.435       .  S
Zr604       O610   2.375       .  S
Zr604       O609   2.382       .  S
Zr604       O614   2.406       .  S
Zr604       O612   2.395       .  S
O605        H621   0.990       .  S
O606        H620   0.990       .  S
O606        H630   0.990       .  S
Zr607       O610   2.367       .  S
Zr607       O612   2.379       .  S
Zr607       O613   2.365   1_556  S
Zr608       O609   2.363       .  S
Zr608       O611   2.332   1_556  S
Zr608       O614   2.362       .  S
O609        H617   0.965       .  S
O612        H616   0.966       .  S
O613        H618   0.962       .  S
O631       Zr643   2.418       .  S
O631        C633   1.281       .  A
O632       Zr669   2.347       .  S
O632        C633   1.265       .  A
C633        C864   1.384       .  S
O634       Zr646   2.574       .  S
O634        C636   1.312       .  A
O635       Zr670   2.311       .  S
O635        C636   1.264       .  A
C636        C917   1.499       .  S
O637       Zr646   2.597       .  S
O637        C639   1.312       .  A
O638       Zr669   2.345       .  S
O638        C639   1.258       .  A
C639       C1062   1.521       .  S
O640       Zr643   2.420       .  S
O640        C642   1.280       .  A
O641       Zr670   2.370       .  S
O641        C642   1.271       .  A
C642        C841   1.396       .  S
Zr643       O644   2.436       .  S
Zr643       O645   2.438       .  S
Zr643       O649   2.353       .  S
Zr643       O650   2.360       .  S
Zr643       O673   2.350       .  S
Zr643       O675   2.363       .  S
O644        H687   0.990       .  S
O645        H686   0.990       .  S
O645        H690   0.990       .  S
Zr646       O647   2.435       .  S
Zr646       O648   2.435       .  S
Zr646       O650   2.384       .  S
Zr646       O649   2.364       .  S
Zr646       O674   2.407       .  S
Zr646       O676   2.410       .  S
O647        H688   0.990       .  S
O647        H691   0.990       .  S
O648        H681   0.990       .  S
O649       Zr669   2.368       .  S
O650       Zr670   2.371       .  S
O650        H677   0.966       .  S
O651       Zr663   2.423       .  S
O651        C653   1.280       .  A
O652       Zr670   2.370   1_655  S
O652        C653   1.271       .  A
C653        C819   1.396       .  S
O654       Zr666   2.572       .  S
O654        C656   1.309       .  A
O655       Zr669   2.341   1_655  S
O655        C656   1.262       .  A
C656       C1010   1.505       .  S
O657       Zr666   2.554       .  S
O657        C659   1.308       .  A
O658       Zr670   2.316   1_655  S
O658        C659   1.265       .  A
C659        C865   1.494       .  S
O660       Zr663   2.418       .  S
O660        C662   1.282       .  A
O661       Zr669   2.343   1_655  S
O661        C662   1.265       .  A
C662        C821   1.383       .  S
Zr663       O664   2.435       .  S
Zr663       O665   2.435       .  S
Zr663       O671   2.363       .  S
Zr663       O672   2.359       .  S
Zr663       O675   2.357   1_655  S
Zr663       O673   2.348   1_655  S
O664        H684   0.990       .  S
O664        H689   0.990       .  S
O665        H685   0.990       .  S
Zr666       O667   2.434       .  S
Zr666       O668   2.435       .  S
Zr666       O672   2.369       .  S
Zr666       O671   2.383       .  S
Zr666       O676   2.408   1_655  S
Zr666       O674   2.403   1_655  S
O667        H683   0.990       .  S
O668        H682   0.990       .  S
O668        H692   0.990       .  S
Zr669       O672   2.365   1_455  S
Zr669       O674   2.371       .  S
Zr669       O675   2.371       .  S
Zr670       O671   2.365   1_455  S
Zr670       O673   2.332       .  S
Zr670       O676   2.366       .  S
O671        H679   0.966       .  S
O674        H678   0.966       .  S
O675        H680   0.962       .  S
O693       Zr705   2.562       .  S
O693        C695   1.305       .  A
O694       Zr731   2.348   1_545  S
O694        C695   1.261       .  A
C695       C1030   1.505       .  S
O696       Zr708   2.440       .  S
O696        C698   1.284       .  A
O697       Zr732   2.346   1_545  S
O697        C698   1.264       .  A
C698        C823   1.395       .  S
O699       Zr708   2.428       .  S
O699        C701   1.285       .  A
O700       Zr731   2.338   1_545  S
O700        C701   1.264       .  A
C701        C856   1.382       .  S
O702       Zr705   2.541       .  S
O702        C704   1.298       .  A
O703       Zr732   2.351   1_545  S
O703        C704   1.261       .  A
C704        C971   1.498       .  S
Zr705       O706   2.433       .  S
Zr705       O707   2.435       .  S
Zr705       O711   2.367       .  S
Zr705       O712   2.390       .  S
Zr705       O735   2.420   1_545  S
Zr705       O737   2.414   1_545  S
O706        H749   0.990       .  S
O707        H748   0.990       .  S
O707        H752   0.990       .  S
Zr708       O709   2.435       .  S
Zr708       O710   2.434       .  S
Zr708       O712   2.352       .  S
Zr708       O711   2.368       .  S
Zr708       O736   2.350   1_545  S
Zr708       O738   2.349   1_545  S
O709        H750   0.990       .  S
O709        H753   0.990       .  S
O710        H743   0.990       .  S
O711       Zr731   2.366   1_545  S
O712       Zr732   2.372   1_545  S
O712        H739   0.965       .  S
O713       Zr725   2.577       .  S
O713        C715   1.312       .  A
O714       Zr732   2.310       .  S
O714        C715   1.265       .  A
C715        C938   1.490       .  S
O716       Zr728   2.438       .  S
O716        C718   1.286       .  A
O717       Zr731   2.333       .  S
O717        C718   1.263       .  A
C718        C822   1.386       .  S
O719       Zr728   2.445       .  S
O719        C721   1.287       .  A
O720       Zr732   2.336       .  S
O720        C721   1.266       .  A
C721        C817   1.390       .  S
O722       Zr725   2.574       .  S
O722        C724   1.308       .  A
O723       Zr731   2.347       .  S
O723        C724   1.261       .  A
C724       C1014   1.511       .  S
Zr725       O726   2.436       .  S
Zr725       O727   2.434       .  S
Zr725       O733   2.371       .  S
Zr725       O734   2.368       .  S
Zr725       O737   2.416       .  S
Zr725       O735   2.413       .  S
O726        H746   0.990       .  S
O726        H751   0.990       .  S
O727        H747   0.990       .  S
Zr728       O729   2.435       .  S
Zr728       O730   2.434       .  S
Zr728       O734   2.363       .  S
Zr728       O733   2.348       .  S
Zr728       O738   2.348       .  S
Zr728       O736   2.345       .  S
O729        H745   0.990       .  S
O730        H744   0.990       .  S
O730        H754   0.989       .  S
Zr731       O734   2.368       .  S
Zr731       O736   2.376       .  S
Zr731       O737   2.363       .  S
Zr732       O733   2.371       .  S
Zr732       O735   2.353       .  S
Zr732       O738   2.355       .  S
O733        H741   0.965       .  S
O736        H740   0.962       .  S
O737        H742   0.966       .  S
O755       Zr767   2.586       .  S
O755        C757   1.315       .  A
O756       Zr793   2.319   1_554  S
O756        C757   1.263       .  A
C757        C958   1.502       .  S
O758       Zr770   2.408       .  S
O758        C760   1.277       .  A
O759       Zr794   2.377   1_554  S
O759        C760   1.273       .  A
C760        C848   1.392       .  S
O761       Zr770   2.405       .  S
O761        C763   1.280       .  A
O762       Zr793   2.372   1_554  S
O762        C763   1.271       .  A
C763        C828   1.389       .  S
O764       Zr767   2.566       .  S
O764        C766   1.311       .  A
O765       Zr794   2.310   1_554  S
O765        C766   1.264       .  A
C766        C886   1.498       .  S
Zr767       O768   2.433       .  S
Zr767       O769   2.435       .  S
Zr767       O773   2.372       .  S
Zr767       O774   2.382       .  S
Zr767       O797   2.406   1_554  S
Zr767       O799   2.394   1_554  S
O768        H811   0.990       .  S
O769        H810   0.990       .  S
O769        H814   0.990       .  S
Zr770       O771   2.436       .  S
Zr770       O772   2.436       .  S
Zr770       O774   2.355       .  S
Zr770       O773   2.355       .  S
Zr770       O798   2.358   1_554  S
Zr770       O800   2.352   1_554  S
O771        H812   0.990       .  S
O771        H815   0.990       .  S
O772        H805   0.990       .  S
O773       Zr793   2.367   1_554  S
O774       Zr794   2.368   1_554  S
O774        H801   0.966       .  S
O775       Zr787   2.566       .  S
O775        C777   1.311       .  A
O776       Zr794   2.316       .  S
O776        C777   1.265       .  A
C777        C870   1.501       .  S
O778       Zr790   2.411       .  S
O778        C780   1.280       .  A
O779       Zr793   2.369       .  S
O779        C780   1.271       .  A
C780        C818   1.390       .  S
O781       Zr790   2.418       .  S
O781        C783   1.279       .  A
O782       Zr794   2.373       .  S
O782        C783   1.272       .  A
C783        C820   1.393       .  S
O784       Zr787   2.567       .  S
O784        C786   1.305       .  A
O785       Zr793   2.342       .  S
O785        C786   1.257       .  A
C786        C942   1.506       .  S
Zr787       O788   2.436       .  S
Zr787       O789   2.434       .  S
Zr787       O795   2.384       .  S
Zr787       O796   2.381       .  S
Zr787       O799   2.406       .  S
Zr787       O797   2.403       .  S
O788        H808   0.990       .  S
O788        H813   0.990       .  S
O789        H809   0.990       .  S
Zr790       O791   2.436       .  S
Zr790       O792   2.436       .  S
Zr790       O796   2.358       .  S
Zr790       O795   2.357       .  S
Zr790       O800   2.352       .  S
Zr790       O798   2.358       .  S
O791        H807   0.990       .  S
O792        H806   0.990       .  S
O792        H816   0.990       .  S
Zr793       O796   2.371       .  S
Zr793       O798   2.361       .  S
Zr793       O799   2.384       .  S
Zr794       O795   2.367       .  S
Zr794       O797   2.370       .  S
Zr794       O800   2.330       .  S
O795        H803   0.966       .  S
O798        H802   0.961       .  S
O799        H804   0.966       .  S
C817        C818   1.176       .  T
C819        C820   1.178       .  T
C821        C822   1.172       .  T
C823        C824   1.177       .  T
C825        C826   1.175       .  T
C827        C828   1.177       .  T
C829        C830   1.176       .  T
C831        C832   1.177       .  T
C833        C834   1.176       .  T
C835        C836   1.171       .  T
C837        C838   1.170       .  T
C839        C840   1.177       .  T
C841        C842   1.177       .  T
C843        C844   1.170       .  T
C845        C846   1.173       .  T
C847        C848   1.178       .  T
C849        C850   1.179       .  T
C851        C852   1.178       .  T
C853        C854   1.181       .  T
C855        C856   1.170       .  T
C857        C858   1.176       .  T
C859        C860   1.175       .  T
C861        C862   1.171       .  T
C863        C864   1.172       .  T
C865        C866   1.370       .  D
C865        H867   1.086       .  S
C866        H868   1.087       .  S
C869        C870   1.375       .  D
C869        H871   1.086       .  S
C870        H872   1.086       .  S
C873        C874   1.367       .  D
C873        H875   1.089       .  S
C874        H876   1.088       .  S
C877        C878   1.376       .  D
C877        H879   1.085       .  S
C878        H880   1.086       .  S
C881        C882   1.374       .  D
C881        H883   1.087       .  S
C882        H884   1.086       .  S
C885        C886   1.374       .  D
C885        H887   1.086       .  S
C886        H888   1.085       .  S
C889        C890   1.372       .  D
C889        H891   1.086       .  S
C890        H892   1.087       .  S
C893        C894   1.372       .  D
C893        H895   1.087       .  S
C894        H896   1.086       .  S
C897        C898   1.265   1_556  T
C899        C900   1.371       .  D
C899        H901   1.087       .  S
C900        H902   1.086       .  S
C903        C904   1.374       .  D
C903        H905   1.086       .  S
C904        H906   1.085       .  S
C907        C908   1.374       .  D
C907        H909   1.085       .  S
C908        H910   1.087       .  S
C911        C912   1.371       .  D
C911        H913   1.086       .  S
C912        H914   1.087       .  S
C915        C916   1.262       .  T
C917        C918   1.376       .  D
C917        H919   1.085       .  S
C918        H920   1.086       .  S
C921        C922   1.372       .  D
C921        H923   1.086       .  S
C922        H924   1.086       .  S
C925        C926   1.365       .  D
C925        H927   1.086       .  S
C926        H928   1.086       .  S
C929        C930   1.373       .  D
C929        H931   1.085       .  S
C930        H932   1.087       .  S
C933        C934   1.264   1_554  T
C935        C936   1.260       .  T
C937        C938   1.373       .  D
C937        H939   1.086       .  S
C938        H940   1.085       .  S
C941        C942   1.376       .  D
C941        H943   1.086       .  S
C942        H944   1.085       .  S
C945        C946   1.374       .  D
C945        H947   1.086       .  S
C946        H948   1.085       .  S
C949        C950   1.374       .  D
C949        H951   1.085       .  S
C950        H952   1.086       .  S
C953        C954   1.372       .  D
C953        H955   1.085       .  S
C954        H956   1.086       .  S
C957        C958   1.376       .  D
C957        H959   1.083       .  S
C958        H960   1.085       .  S
C961        C962   1.372       .  D
C961        H963   1.085       .  S
C962        H964   1.086       .  S
C965        C966   1.376       .  D
C965        H967   1.083       .  S
C966        H968   1.085       .  S
C969        C970   1.269   1_556  T
C971        C972   1.370       .  D
C971        H973   1.086       .  S
C972        H974   1.085       .  S
C975        C976   1.376       .  D
C975        H977   1.084       .  S
C976        H978   1.085       .  S
C979        C980   1.371       .  D
C979        H981   1.085       .  S
C980        H982   1.086       .  S
C983        C984   1.375       .  D
C983        H985   1.085       .  S
C984        H986   1.085       .  S
C987        C988   1.263       .  T
C989        C990   1.374       .  D
C989        H991   1.086       .  S
C990        H992   1.085       .  S
C993        C994   1.374       .  D
C993        H995   1.085       .  S
C994        H996   1.085       .  S
C997        C998   1.373       .  D
C997        H999   1.086       .  S
C998       H1000   1.085       .  S
C1001      C1002   1.373       .  D
C1001      H1003   1.086       .  S
C1002      H1004   1.085       .  S
C1005      C1006   1.264   1_545  T
C1007      C1008   1.267   1_556  T
C1009      C1010   1.374       .  D
C1009      H1011   1.078       .  S
C1010      H1012   1.085       .  S
C1013      C1014   1.376       .  D
C1013      H1015   1.083       .  S
C1014      H1016   1.085       .  S
C1017      C1018   1.377       .  D
C1017      H1019   1.080       .  S
C1018      H1020   1.081       .  S
C1021      C1022   1.376       .  D
C1021      H1023   1.087       .  S
C1022      H1024   1.087       .  S
C1025      C1026   1.376       .  D
C1025      H1027   1.085       .  S
C1026      H1028   1.081       .  S
C1029      C1030   1.372       .  D
C1029      H1031   1.082       .  S
C1030      H1032   1.085       .  S
C1033      C1034   1.377       .  D
C1033      H1035   1.081       .  S
C1034      H1036   1.085       .  S
C1037      C1038   1.378       .  D
C1037      H1039   1.082       .  S
C1038      H1040   1.085       .  S
C1041      C1042   1.272       .  T
C1043      C1044   1.374       .  D
C1043      H1045   1.085       .  S
C1044      H1046   1.081       .  S
C1047      C1048   1.379       .  D
C1047      H1049   1.085       .  S
C1048      H1050   1.081       .  S
C1051      C1052   1.378       .  D
C1051      H1053   1.085       .  S
C1052      H1054   1.078       .  S
C1055      C1056   1.376       .  D
C1055      H1057   1.083       .  S
C1056      H1058   1.085       .  S
C1059      C1060   1.268       .  T
C1061      C1062   1.382       .  D
C1061      H1063   1.083       .  S
C1062      H1064   1.085       .  S
C1065      C1066   1.376       .  D
C1065      H1067   1.079       .  S
C1066      H1068   1.085       .  S
C1069      C1070   1.370       .  D
C1069      H1071   1.079       .  S
C1070      H1072   1.085       .  S
C1073      C1074   1.374       .  D
C1073      H1075   1.080       .  S
C1074      H1076   1.085       .  S
C1077      C1078   1.274       .  T
C1079      C1080   1.268   1_655  T
