geometry optimzed in LAMMPS
_audit_creation_date              2020-11-30 
_audit_creation_method            'lammps2cif' 
_symmetry_space_group_name_H-M    'P1' 
_symmetry_Int_Tables_number       1 
_symmetry_cell_setting            triclinic 
loop_ 
_symmetry_equiv_pos_as_xyz 
  x,y,z 
_cell_length_a                    35.3354121212492 
_cell_length_b                    35.53704891168856 
_cell_length_c                    35.42599043639446 
_cell_angle_alpha                 90.27545885591377 
_cell_angle_beta                  89.55220631882754 
_cell_angle_gamma                 89.88896001699327 
loop_ 
_atom_site_label 
_atom_site_type_symbol 
_atom_site_fract_x 
_atom_site_fract_y 
_atom_site_fract_z 
_atom_site_charge 
O1          O  0.42187187  0.00604390  0.78817639    -0.82940
C2          C  0.40700923  0.86916889  0.87056036     0.96420
O3          O  0.40488732  0.90198387  0.88486042    -0.72050
O4          O  0.46340978  0.93688140  0.86140544    -0.75650
Al5        Al  0.41354618  0.95066158  0.86143301     1.48980
C6          C  0.48951557  0.94902184  0.84067505     0.91670
O7          O  0.45373778  0.90694947  0.76069213    -0.81870
O8          O  0.34605186  0.93172229  0.77772826    -0.75420
Al9        Al  0.43514574  0.95473109  0.77702896     1.90120
O10         O  0.39958345  0.87755981  0.76394358    -0.74490
O11         O  0.33929339  0.91275628  0.84758720    -0.74340
O12         O  0.39993111  0.86399148  0.83630216    -0.80000
O13         O  0.36268491  0.96681683  0.86510673    -0.78210
O14         O  0.40802123  0.93514937  0.81492816    -1.14340
O15         O  0.42614564  0.00115206  0.84953824    -0.73540
C16         C  0.42725219  0.02090217  0.82014898     0.97180
C17         C  0.43317748  0.87953967  0.75166879     0.93580
Al18       Al  0.37411165  0.89952896  0.80684855     1.55560
O19         O  0.48253815  0.95965093  0.80701505    -0.78160
C20         C  0.33567969  0.94390849  0.86468377     0.97750
C21         C  0.35678577  0.94430212  0.74649830     0.92630
O22         O  0.39171738  0.95263267  0.74080031    -0.83480
O23         O  0.41751821  0.81337858  0.15267081    -0.82940
C24         C  0.43274895  0.78506453  0.99969343     0.96420
O25         O  0.42031901  0.80971148  0.02220401    -0.72050
O26         O  0.39582293  0.84493656  0.08331248    -0.75650
Al27       Al  0.44168941  0.81734750  0.06964428     1.48980
C28         C  0.36288719  0.83332093  0.09109579     0.91670
O29         O  0.36821535  0.72722397  0.10202578    -0.81870
O30         O  0.44321628  0.69933222  0.10745889    -0.75420
Al31       Al  0.39533631  0.77010029  0.12383083     1.90120
O32         O  0.39705690  0.71654114  0.04790789    -0.74490
O33         O  0.49709334  0.74384020  0.07301254    -0.74340
O34         O  0.44855847  0.75523767  0.01181191    -0.80000
O35         O  0.49112820  0.80183833  0.05278274    -0.78210
O36         O  0.42733777  0.77291519  0.08532627    -1.14340
O37         O  0.46457305  0.82713609  0.11521333    -0.73540
C38         C  0.44842517  0.83106913  0.14650205     0.97180
C39         C  0.36988207  0.71070525  0.07004313     0.93580
Al40       Al  0.44527745  0.73192828  0.06216080     1.55560
O41         O  0.35795436  0.79993458  0.10088419    -0.78160
C42         C  0.51165767  0.77362373  0.05998627     0.97750
C43         C  0.43597843  0.70626209  0.14213342     0.92630
O44         O  0.42726468  0.73907048  0.15221319    -0.83480
O45         O  0.23727666  0.02028923  0.00271275    -0.82940
C46         C  0.32335297  0.03929969  0.13932126     0.96420
O47         O  0.33347294  0.03895222  0.10547176    -0.72050
O48         O  0.29793668  0.97942555  0.08115789    -0.75650
Al49       Al  0.30668442  0.02765558  0.06151336     1.48980
C50         C  0.27017366  0.95742759  0.07676363     0.91670
O51         O  0.19410568  0.01277927  0.10074233    -0.81870
O52         O  0.22510354  0.10641270  0.08421257    -0.75420
Al53       Al  0.22008412  0.01982603  0.05488589     1.90120
O54         O  0.21711328  0.05494628  0.13891532    -0.74490
O55         O  0.29956295  0.10700707  0.09167366    -0.74340
O56         O  0.29023656  0.04980855  0.14731619    -0.80000
O57         O  0.31745205  0.07540721  0.04081778    -0.78210
O58         O  0.26092956  0.04158142  0.07593797    -1.14340
O59         O  0.29619983  0.01093763  0.01419868    -0.73540
C60         C  0.26929510  0.00842029  0.99231102     0.97180
C61         C  0.19423506  0.02882536  0.13224975     0.93580
Al62       Al  0.25801879  0.07667681  0.11223120     1.55560
O63         O  0.23934931  0.96883484  0.06230732    -0.78160
C64         C  0.31833734  0.10485514  0.06087333     0.97750
C65         C  0.19983232  0.10053987  0.05999736     0.92630
O66         O  0.19522178  0.06775207  0.04622169    -0.83480
O67         O  0.61919450  0.03723595  0.23321820    -0.82940
C68         C  0.46019559  0.01684093  0.22570560     0.96420
O69         O  0.48557652  0.00042897  0.20689242    -0.72050
O70         O  0.52740555  0.05241390  0.17689037    -0.75650
Al71       Al  0.53829181  0.00706695  0.20262726     1.48980
C72         C  0.54675700  0.08216022  0.17821118     0.91670
O73         O  0.53757551  0.09814832  0.27466981    -0.81870
O74         O  0.55679397  0.99592488  0.31382324    -0.75420
Al75       Al  0.57577955  0.06515639  0.25370215     1.90120
O76         O  0.51120340  0.05798840  0.31247744    -0.74490
O77         O  0.50609616  0.95947234  0.26569210    -0.74340
O78         O  0.46764149  0.02766383  0.25901245    -0.80000
O79         O  0.55013711  0.96003923  0.22361619    -0.78210
O80         O  0.54272390  0.02844494  0.24694862    -1.14340
O81         O  0.58889777  0.00885265  0.18792585    -0.73540
C82         C  0.61934608  0.01826119  0.20284304     0.97180
C83         C  0.51712853  0.09167924  0.30336829     0.93580
Al84       Al  0.51320746  0.01157063  0.28494254     1.55560
O85         O  0.56780394  0.08916390  0.20602815    -0.78160
C86         C  0.52433324  0.94225790  0.23989998     0.97750
C87         C  0.58374680  0.01845840  0.32146029     0.92630
O88         O  0.58990776  0.04757728  0.30188709    -0.83480
O89         O  0.45764827  0.20789784  0.98780656    -0.82940
C90         C  0.59021808  0.12709164  0.93872154     0.96420
O91         O  0.55758913  0.11536398  0.94720058    -0.72050
O92         O  0.54404335  0.14167501  0.01445961    -0.75650
Al93       Al  0.51527063  0.13892245  0.97127225     1.48980
C94         C  0.53948866  0.16413200  0.04171312     0.91670
O95         O  0.55748694  0.24269755  0.00030838    -0.81870
O96         O  0.52156096  0.22795221  0.89966222    -0.75420
Al97       Al  0.51007948  0.22269053  0.99105204     1.90120
O98         O  0.58458103  0.23372303  0.94525203    -0.74490
O99         O  0.52916072  0.15635166  0.88852571    -0.74340
O100        O  0.59540047  0.16161161  0.93493256    -0.80000
O101        O  0.48620418  0.13411523  0.92783726    -0.78210
O102        O  0.52681107  0.18582183  0.96067490    -1.14340
O103        O  0.46985518  0.14893298  0.99901569    -0.73540
C104        C  0.44744387  0.17650892  0.00086083     0.97180
C105        C  0.58313196  0.25000894  0.97717495     0.93580
Al106      Al  0.55541929  0.19424779  0.92047359     1.55560
O107        O  0.51942838  0.19380849  0.03745655    -0.78160
C108        C  0.49817642  0.13855504  0.89447374     0.97750
C109        C  0.50995342  0.25763796  0.91471198     0.92630
O110        O  0.50237633  0.25895363  0.94994796    -0.83480
O111        O  0.66008146  0.84972946  0.98293632    -0.82940
C112        C  0.67387154  0.00479020  0.98766594     0.96420
O113        O  0.65142229  0.98676851  0.00888920    -0.72050
O114        O  0.61605534  0.93680765  0.96827475    -0.75650
Al115      Al  0.64323916  0.93408961  0.01403139     1.48980
C116        C  0.61828361  0.92248392  0.93571948     0.91670
O117        O  0.71887682  0.91649871  0.91949574    -0.81870
O118        O  0.74918728  0.90271953  0.02550806    -0.75420
Al119      Al  0.68935668  0.88652128  0.95512269     1.90120
O120        O  0.75772458  0.94035618  0.95992598    -0.74490
O121        O  0.71284353  0.96597274  0.05335693    -0.74340
O122        O  0.70728979  0.99266943  0.98122018    -0.80000
O123        O  0.66266816  0.93325653  0.06467906    -0.78210
O124        O  0.68646303  0.92233534  0.99097176    -1.14340
O125        O  0.62759632  0.88441027  0.02261236    -0.73540
C126        C  0.63569570  0.85266945  0.00909349     0.97180
C127        C  0.74996041  0.93239603  0.92645468     0.93580
Al128      Al  0.72794268  0.94787656  0.00398475     1.55560
O129        O  0.64598615  0.90180063  0.92722663    -0.78160
C130        C  0.68735422  0.95601817  0.07603063     0.97750
C131        C  0.75164673  0.87133573  0.00770999     0.92630
O132        O  0.73297561  0.86525842  0.97777253    -0.83480
O133        O  0.72519266  0.43774434  0.05323027    -0.82940
C134        C  0.81856681  0.41181520  0.92320257     0.96420
O135        O  0.83002839  0.41817141  0.95637962    -0.72050
O136        O  0.79999521  0.48064996  0.98086402    -0.75650
Al137      Al  0.80226728  0.43273845  0.00163413     1.48980
C138        C  0.77722789  0.50512072  0.99295902     0.91670
O139        O  0.70550888  0.46026084  0.95122719    -0.81870
O140        O  0.72141735  0.35665674  0.98829154    -0.75420
Al141      Al  0.71753944  0.44725927  0.00094581     1.90120
O142        O  0.71094544  0.40362678  0.92649183    -0.74490
O143        O  0.79631926  0.35079587  0.97682125    -0.74340
O144        O  0.78493759  0.40238584  0.91740206    -0.80000
O145        O  0.80750198  0.38676082  0.02502383    -0.78210
O146        O  0.75760330  0.42065149  0.98554730    -1.14340
O147        O  0.78587051  0.44943920  0.05005555    -0.73540
C148        C  0.75571355  0.44660575  0.06898964     0.97180
C149        C  0.69814104  0.43727229  0.92525891     0.93580
Al150      Al  0.75338058  0.38133756  0.95469250     1.55560
O151        O  0.74435909  0.49583946  0.00451690    -0.78160
C152        C  0.81337270  0.35649752  0.00803375     0.97750
C153        C  0.68956170  0.36888506  0.99849980     0.92630
O154        O  0.68348940  0.40414554  0.00071040    -0.83480
O155        O  0.10393716  0.43402046  0.83681001    -0.82940
C156        C  0.94368834  0.43324557  0.82839495     0.96420
O157        O  0.96380030  0.44676772  0.85419925    -0.72050
O158        O  0.00807645  0.39518760  0.87579463    -0.75650
Al159      Al  0.01667745  0.44447701  0.86287080     1.48980
C160        C  0.03227566  0.36974544  0.87735319     0.91670
O161        O  0.03898565  0.36708419  0.78067819    -0.81870
O162        O  0.04756796  0.47567646  0.75697937    -0.75420
Al163      Al  0.06898062  0.40193647  0.80963688     1.90120
O164        O  0.00979181  0.40950449  0.74627607    -0.74490
O165        O  0.98863431  0.49997697  0.80359321    -0.74340
O166        O  0.95695199  0.42874603  0.79546318    -0.80000
O167        O  0.02351436  0.49563518  0.85354308    -0.78210
O168        O  0.02980195  0.43272390  0.81676720    -1.14340
O169        O  0.06622146  0.44465303  0.88444627    -0.73540
C170        C  0.09858030  0.44717508  0.86963318     0.97180
C171        C  0.02009674  0.37597676  0.75173683     0.93580
Al172      Al  0.00323461  0.45202012  0.77849252     1.55560
O173        O  0.05997301  0.37045541  0.85433975    -0.78160
C174        C  0.00028642  0.51400346  0.83437602     0.97750
C175        C  0.07798802  0.45788109  0.74927609     0.92630
O176        O  0.08584338  0.42711938  0.76532948    -0.83480
O177        O  0.17075333  0.61452989  0.07615643    -0.82940
C178        C  0.18562020  0.45813537  0.05974310     0.96420
O179        O  0.16064850  0.47751712  0.04290830    -0.72050
O180        O  0.12400457  0.52169824  0.08966025    -0.75650
Al181      Al  0.15012643  0.53091199  0.04399807     1.48980
C182        C  0.12337938  0.54116489  0.11940521     0.91670
O183        O  0.22221561  0.53933137  0.13391270    -0.81870
O184        O  0.25531518  0.56723311  0.02987318    -0.75420
Al185      Al  0.19659014  0.57501818  0.10237904     1.90120
O186        O  0.26534568  0.52383562  0.09283944    -0.74490
O187        O  0.21850375  0.50603277  0.99612952    -0.74340
O188        O  0.21840813  0.47134053  0.06582647    -0.80000
O189        O  0.16858769  0.54042926  0.99571757    -0.78210
O190        O  0.19366706  0.54194677  0.06487580    -1.14340
O191        O  0.13184073  0.58123109  0.04181038    -0.73540
C192        C  0.14282471  0.61257537  0.05422430     0.97180
C193        C  0.25466057  0.52586878  0.12679232     0.93580
Al194      Al  0.23592515  0.51923421  0.04739184     1.55560
O195        O  0.15061063  0.56234919  0.12740649    -0.78160
C196        C  0.19089391  0.51933968  0.97818573     0.97750
C197        C  0.25927110  0.59526445  0.05232134     0.92630
O198        O  0.24245179  0.59619390  0.08402723    -0.83480
O199        O  0.95122360  0.24919315  0.08374457    -0.82940
C200        C  0.08939541  0.33565633  0.09691061     0.96420
O201        O  0.05584147  0.34623104  0.09289646    -0.72050
O202        O  0.02887413  0.31200057  0.03363488    -0.75650
Al203      Al  0.01036587  0.32001769  0.08305204     1.48980
C204        C  0.01871182  0.28573227  0.01183275     0.91670
O205        O  0.05192967  0.21325097  0.06065287    -0.81870
O206        O  0.03021697  0.23791234  0.16218480    -0.75420
Al207      Al  0.00384601  0.23405674  0.07431154     1.90120
O208        O  0.08537277  0.22896696  0.10955810    -0.74490
O209        O  0.03977049  0.31087372  0.16410386    -0.74340
O210        O  0.09590117  0.30235755  0.10708805    -0.80000
O211        O  0.99080285  0.33093059  0.13204543    -0.78210
O212        O  0.02452864  0.27443560  0.09684889    -1.14340
O213        O  0.96105488  0.30760420  0.06862828    -0.73540
C214        C  0.93841204  0.28099907  0.07419791     0.97180
C215        C  0.08199968  0.21053037  0.07932872     0.93580
Al216      Al  0.05968485  0.27031104  0.13255042     1.55560
O217        O  0.00377723  0.25587196  0.02443526    -0.78160
C218        C  0.00887728  0.32905911  0.16263353     0.97750
C219        C  0.01089773  0.20953502  0.15354348     0.92630
O220        O  0.00099242  0.20457381  0.11966393    -0.83480
O221        O  0.93082240  0.46667507  0.26223535    -0.82940
C222        C  0.88640316  0.59238340  0.17361200     0.96420
O223        O  0.88873071  0.55914345  0.16035525    -0.72050
O224        O  0.95450324  0.53897911  0.18278647    -0.75650
Al225      Al  0.90921769  0.51471605  0.18625463     1.48980
C226        C  0.98301036  0.53674463  0.20317118     0.91670
O227        O  0.94482941  0.57101003  0.28132433    -0.81870
O228        O  0.84227283  0.52785741  0.27714612    -0.75420
Al229      Al  0.93453870  0.52028734  0.26933683     1.90120
O230        O  0.88683089  0.59113036  0.27972899    -0.74490
O231        O  0.82871011  0.53654843  0.20518154    -0.74340
O232        O  0.87947889  0.59741294  0.20792169    -0.80000
O233        O  0.86293784  0.48882151  0.18596072    -0.78210
O234        O  0.90201731  0.53145181  0.23270761    -1.14340
O235        O  0.93370672  0.46795676  0.20047090    -0.73540
C236        C  0.93915471  0.45081156  0.23124567     0.97180
C237        C  0.92035789  0.59469943  0.29112688     0.93580
Al238      Al  0.86250632  0.56079145  0.24156899     1.55560
O239        O  0.97971356  0.52377277  0.23652687    -0.78160
C240        C  0.83106113  0.50450679  0.18924148     0.97750
C241        C  0.85835309  0.52148149  0.30793169     0.92630
O242        O  0.89441698  0.51783068  0.30925242    -0.83480
O243        O  0.93397104  0.67446716  0.91078055    -0.82940
C244        C  0.92766785  0.69815052  0.06844482     0.96420
O245        O  0.94487743  0.67163788  0.05235496    -0.72050
O246        O  0.89337856  0.64335966  0.01007312    -0.75650
Al247      Al  0.94390248  0.65752345  0.00107110     1.48980
C248        C  0.86977087  0.63697342  0.98460500     0.91670
O249        O  0.86089911  0.72966133  0.97274052    -0.81870
O250        O  0.96451090  0.76654363  0.95625539    -0.75420
Al251      Al  0.89857219  0.70162541  0.94352076     1.90120
O252        O  0.90039170  0.76901892  0.99875602    -0.74490
O253        O  0.99761787  0.72495022  0.01562666    -0.74340
O254        O  0.92573948  0.72975527  0.05269122    -0.80000
O255        O  0.99624666  0.66670283  0.99479766    -0.78210
O256        O  0.93039097  0.70133677  0.98238511    -1.14340
O257        O  0.94551473  0.63279020  0.95411468    -0.73540
C258        C  0.94801743  0.64309112  0.92024331     0.97180
C259        C  0.86702489  0.75991706  0.99121823     0.93580
Al260      Al  0.94645386  0.74387846  0.00397299     1.55560
O261        O  0.87168409  0.65581601  0.95470142    -0.78160
C262        C  0.01419824  0.69367836  0.00915908     0.97750
C263        C  0.94234744  0.76950329  0.92799380     0.92630
O264        O  0.91699889  0.74551590  0.92316058    -0.83480
O265        O  0.00107437  0.74078380  0.47721701    -0.82940
C266        C  0.86812039  0.83517351  0.47409293     0.96420
O267        O  0.90238799  0.84491374  0.47295697    -0.72050
O268        O  0.93227974  0.80847993  0.52922517    -0.75650
Al269      Al  0.94769467  0.81546636  0.47959023     1.48980
C270        C  0.93842247  0.78103989  0.55068016     0.91670
O271        O  0.90208479  0.70801669  0.50018430    -0.81870
O272        O  0.91648604  0.73790962  0.40091804    -0.75420
Al273      Al  0.94889275  0.72880666  0.48647047     1.90120
O274        O  0.86439909  0.72883624  0.45640421    -0.74490
O275        O  0.91025629  0.81119275  0.40313587    -0.74340
O276        O  0.85934995  0.80221173  0.46446519    -0.80000
O277        O  0.96459794  0.82497679  0.42978706    -0.78210
O278        O  0.92929342  0.77090193  0.46665764    -1.14340
O279        O  0.99745394  0.80017711  0.49133941    -0.73540
C280        C  0.01682100  0.77089388  0.48695248     0.97180
C281        C  0.87098098  0.70716332  0.48358369     0.93580
Al282      Al  0.89095717  0.77003262  0.43409173     1.55560
O283        O  0.94985146  0.74940049  0.53786919    -0.78160
C284        C  0.94250638  0.82700277  0.40203863     0.97750
C285        C  0.93703048  0.70947995  0.40565836     0.92630
O286        O  0.94967212  0.70215548  0.43834357    -0.83480
O287        O  0.77287408  0.12556154  0.49000458    -0.82940
C288        C  0.77616784  0.96527601  0.50596121     0.96420
O289        O  0.79851417  0.98990809  0.51837502    -0.72050
O290        O  0.82549157  0.03446171  0.46947738    -0.75650
Al291      Al  0.80273350  0.04282210  0.51624203     1.48980
C292        C  0.82583905  0.05434329  0.44035890     0.91670
O293        O  0.72942306  0.05201705  0.42507337    -0.81870
O294        O  0.69074651  0.06489799  0.52889035    -0.75420
Al295      Al  0.75202089  0.08576482  0.46062059     1.90120
O296        O  0.69216946  0.02247682  0.46463813    -0.74490
O297        O  0.73654556  0.01295090  0.56281742    -0.74340
O298        O  0.74330965  0.97496231  0.49534829    -0.80000
O299        O  0.78522883  0.04946468  0.56620345    -0.78210
O300        O  0.75790906  0.05022877  0.49604407    -1.14340
O301        O  0.81756274  0.09428774  0.51828505    -0.73540
C302        C  0.80219492  0.12503704  0.50979555     0.97180
C303        C  0.69994818  0.03313844  0.43156853     0.93580
Al304      Al  0.71892992  0.02152464  0.51152282     1.55560
O305        O  0.79961928  0.07770571  0.43466061    -0.78160
C306        C  0.76327206  0.02661201  0.58200352     0.97750
C307        C  0.68469708  0.09397445  0.50905246     0.92630
O308        O  0.70468962  0.10123504  0.48028802    -0.83480
O309        O  0.01597536  0.96290376  0.29741194    -0.82940
C310        C  0.05399749  0.09653861  0.37742822     0.96420
O311        O  0.05272780  0.06417941  0.39249828    -0.72050
O312        O  0.98815255  0.04000917  0.37093258    -0.75650
Al313      Al  0.03485863  0.01735276  0.36987243     1.48980
C314        C  0.96053842  0.03167160  0.35057420     0.91670
O315        O  0.00199300  0.06537438  0.27009627    -0.81870
O316        O  0.10370216  0.02402695  0.28150755    -0.75420
Al317      Al  0.01191892  0.01555898  0.28622995     1.90120
O318        O  0.06006735  0.08641203  0.27098563    -0.74490
O319        O  0.11485157  0.04052042  0.35295033    -0.74340
O320        O  0.06315212  0.09977970  0.34331547    -0.80000
O321        O  0.08182482  0.99254852  0.37322419    -0.78210
O322        O  0.04290554  0.03071328  0.32274716    -1.14340
O323        O  0.01253572  0.96917052  0.35876175    -0.73540
C324        C  0.00747182  0.94968173  0.32933934     0.97180
C325        C  0.02617525  0.08937280  0.26026009     0.93580
Al326      Al  0.08237564  0.06018408  0.31289796     1.55560
O327        O  0.96569788  0.01990285  0.31696474    -0.78160
C328        C  0.11259556  0.01008627  0.37154668     0.97750
C329        C  0.08905485  0.00989048  0.25247512     0.92630
O330        O  0.05313253  0.00855221  0.24938773    -0.83480
O331        O  0.01192205  0.18096136  0.65356904    -0.82940
C332        C  0.00068828  0.19123974  0.49558395     0.96420
O333        O  0.97900481  0.17122859  0.51546258    -0.72050
O334        O  0.03052021  0.13729987  0.55351263    -0.75650
Al335      Al  0.98452921  0.16047153  0.56775072     1.48980
C336        C  0.05971410  0.13374024  0.57314794     0.91670
O337        O  0.07976521  0.22468783  0.58097845    -0.81870
O338        O  0.98001421  0.27069676  0.60059196    -0.75420
Al339      Al  0.04317373  0.20317930  0.61455422     1.90120
O340        O  0.04396596  0.26847155  0.55751160    -0.74490
O341        O  0.94281391  0.23144485  0.54637921    -0.74340
O342        O  0.01192657  0.22267923  0.50809470    -0.80000
O343        O  0.93611734  0.18023817  0.57985947    -0.78210
O344        O  0.00735142  0.20302563  0.57981771    -1.14340
O345        O  0.98562879  0.13893034  0.61699850    -0.73540
C346        C  0.99465006  0.15016078  0.64953753     0.97180
C347        C  0.07640904  0.25643190  0.56569816     0.93580
Al348      Al  0.99533519  0.24495386  0.55501038     1.55560
O349        O  0.06481925  0.15539261  0.60101787    -0.78160
C350        C  0.92173360  0.20624544  0.56045064     0.97750
C351        C  0.00182571  0.27384040  0.62881012     0.92630
O352        O  0.02872870  0.25096818  0.63418615    -0.83480
O353        O  0.21520089  0.94302099  0.51064907    -0.82940
C354        C  0.12201969  0.90195735  0.63561621     0.96420
O355        O  0.10942896  0.90800787  0.60270903    -0.72050
O356        O  0.13101288  0.97251771  0.57775987    -0.75650
Al357      Al  0.13545607  0.92444584  0.55701834     1.48980
C358        C  0.15127952  0.99975392  0.56828718     0.91670
O359        O  0.22549471  0.96157837  0.61587857    -0.81870
O360        O  0.22769655  0.85966869  0.56775481    -0.75420
Al361      Al  0.21838445  0.95023245  0.56380780     1.90120
O362        O  0.22805318  0.90247644  0.63260203    -0.74490
O363        O  0.15539496  0.84221924  0.57790804    -0.74340
O364        O  0.15568695  0.89161231  0.64022365    -0.80000
O365        O  0.13313986  0.87767269  0.53358655    -0.78210
O366        O  0.18142785  0.91726919  0.57419082    -1.14340
O367        O  0.15292605  0.94366876  0.50863785    -0.73540
C368        C  0.18496992  0.94825067  0.49271749     0.97180
C369        C  0.23599398  0.93678166  0.63886379     0.93580
Al370      Al  0.19089895  0.87716383  0.60232876     1.55560
O371        O  0.18596894  0.99456286  0.56076007    -0.78160
C372        C  0.13765214  0.84552556  0.54715400     0.97750
C373        C  0.25820221  0.87718617  0.56222118     0.92630
O374        O  0.25905813  0.91290131  0.56385754    -0.83480
O375        O  0.84114032  0.92952540  0.72142031    -0.82940
C376        C  0.00098918  0.93671132  0.73084975     0.96420
O377        O  0.98016639  0.94371293  0.70286496    -0.72050
O378        O  0.92908667  0.90317431  0.67329632    -0.75650
Al379      Al  0.92742120  0.95050647  0.69455550     1.48980
C380        C  0.91283409  0.87265178  0.67816144     0.91670
O381        O  0.91198634  0.86910529  0.77628841    -0.81870
O382        O  0.89280637  0.97484973  0.80473701    -0.75420
Al383      Al  0.87906694  0.90132980  0.74816952     1.90120
O384        O  0.93754932  0.91218313  0.81214244    -0.74490
O385        O  0.95059114  0.00598732  0.76062913    -0.74340
O386        O  0.98822278  0.93847546  0.76424912    -0.80000
O387        O  0.92871898  0.00208054  0.70378096    -0.78210
O388        O  0.91525358  0.93626568  0.74126350    -1.14340
O389        O  0.87691057  0.95884094  0.67995271    -0.73540
C390        C  0.84475444  0.95179432  0.69391285     0.97180
C391        C  0.92917757  0.87828252  0.80608843     0.93580
Al392      Al  0.93968522  0.95625328  0.78150750     1.55560
O393        O  0.89040967  0.86928642  0.70556455    -0.78160
C394        C  0.94511795  0.02051841  0.72868119     0.97750
C395        C  0.86437551  0.95372281  0.81136166     0.92630
O396        O  0.85939808  0.92397432  0.79260249    -0.83480
O397        O  0.49822782  0.72927321  0.56621223    -0.82940
C398        C  0.36561879  0.64060406  0.59261692     0.96420
O399        O  0.39822616  0.62895221  0.58247416    -0.72050
O400        O  0.42353694  0.66027925  0.52163946    -0.75650
Al401      Al  0.44539759  0.65419241  0.56793612     1.48980
C402        C  0.43187281  0.68464111  0.49759523     0.91670
O403        O  0.39607197  0.75558872  0.54920977    -0.81870
O404        O  0.43974079  0.72991293  0.64855613    -0.75420
Al405      Al  0.44618240  0.73993848  0.55882986     1.90120
O406        O  0.37525172  0.74765368  0.60714001    -0.74490
O407        O  0.42210481  0.65798806  0.65011488    -0.74340
O408        O  0.36116761  0.67425599  0.60312903    -0.80000
O409        O  0.46974423  0.64307330  0.61343227    -0.78210
O410        O  0.43082484  0.69886149  0.58323608    -1.14340
O411        O  0.49474575  0.66961479  0.55028752    -0.73540
C412        C  0.51403896  0.69897565  0.55649817     0.97180
C413        C  0.37292854  0.76377981  0.57522251     0.93580
Al414      Al  0.40189538  0.70253208  0.62403313     1.55560
O415        O  0.44617244  0.71603442  0.50773533    -0.78160
C416        C  0.45180257  0.63869069  0.64367385     0.97750
C417        C  0.44855758  0.76282411  0.63967536     0.92630
O418        O  0.44870435  0.77178457  0.60482516    -0.83480
O419        O  0.33870200  0.52119887  0.33719728    -0.82940
C420        C  0.49732238  0.52270659  0.33307607     0.96420
O421        O  0.47710461  0.49996406  0.35057683    -0.72050
O422        O  0.43488998  0.55533681  0.37948537    -0.75650
Al423      Al  0.42495596  0.50586965  0.35993647     1.48980
C424        C  0.41215585  0.58282687  0.37816632     0.91670
O425        O  0.40285364  0.59308399  0.28595722    -0.81870
O426        O  0.39669864  0.49083565  0.24758490    -0.75420
Al427      Al  0.37400238  0.55521394  0.31176941     1.90120
O428        O  0.43653118  0.55709755  0.24855756    -0.74490
O429        O  0.45218466  0.45992447  0.29257630    -0.74340
O430        O  0.48695755  0.53219908  0.29997274    -0.80000
O431        O  0.41682162  0.45552517  0.34340685    -0.78210
O432        O  0.41278265  0.52389484  0.31524303    -1.14340
O433        O  0.37639265  0.50577603  0.38252547    -0.73540
C434        C  0.34390247  0.50568420  0.36880139     0.97180
C435        C  0.42283689  0.58887323  0.25648777     0.93580
Al436      Al  0.44097928  0.51083991  0.27521370     1.55560
O437        O  0.38420301  0.58230801  0.35638060    -0.78160
C438        C  0.43866897  0.44031214  0.31931861     0.97750
C439        C  0.36474479  0.50774314  0.24505651     0.92630
O440        O  0.35719092  0.53498531  0.26657239    -0.83480
O441        O  0.70829692  0.52375398  0.55720947    -0.82940
C442        C  0.62040065  0.57052882  0.42864006     0.96420
O443        O  0.61151349  0.56529110  0.46267630    -0.72050
O444        O  0.63417370  0.49921295  0.48479801    -0.75650
Al445      Al  0.63680780  0.54719935  0.50606410     1.48980
C446        C  0.65780377  0.47247692  0.48334516     0.91670
O447        O  0.74462438  0.51477390  0.45720841    -0.81870
O448        O  0.72945653  0.61187577  0.48521109    -0.75420
Al449      Al  0.72122164  0.52284431  0.50466991     1.90120
O450        O  0.72765879  0.56461939  0.42646361    -0.74490
O451        O  0.65725960  0.62619045  0.47973286    -0.74340
O452        O  0.65476196  0.57413675  0.42026961    -0.80000
O453        O  0.63614527  0.59559010  0.52917162    -0.78210
O454        O  0.68375025  0.55336341  0.48888861    -1.14340
O455        O  0.64739362  0.52635173  0.55351777    -0.73540
C456        C  0.67639995  0.52020635  0.57241560     0.97180
C457        C  0.74841016  0.53609706  0.42947995     0.93580
Al458      Al  0.69171020  0.59065753  0.45593270     1.55560
O459        O  0.69174551  0.47725668  0.49445610    -0.78160
C460        C  0.64009387  0.62606477  0.51124690     0.97750
C461        C  0.75535222  0.59847984  0.50528252     0.92630
O462        O  0.75541128  0.56410858  0.51510232    -0.83480
O463        O  0.52283842  0.29993134  0.40369851    -0.82940
C464        C  0.51853254  0.28152579  0.55551033     0.96420
O465        O  0.51650568  0.30985962  0.53378775    -0.72050
O466        O  0.53879086  0.34391965  0.47127116    -0.75650
Al467      Al  0.49566473  0.31585788  0.48543798     1.48980
C468        C  0.57231603  0.33704381  0.46204977     0.91670
O469        O  0.57866374  0.23007578  0.46556186    -0.81870
O470        O  0.47781262  0.20476943  0.44840297    -0.75420
Al471      Al  0.54819576  0.26520681  0.43776008     1.90120
O472        O  0.53595445  0.20127845  0.49921370    -0.74490
O473        O  0.43937060  0.24550199  0.49890575    -0.74340
O474        O  0.50465299  0.24962204  0.54593745    -0.80000
O475        O  0.44699081  0.30534334  0.50466763    -0.78210
O476        O  0.51159271  0.26982439  0.47289481    -1.14340
O477        O  0.47474836  0.32381909  0.43654180    -0.73540
C478        C  0.49271977  0.31977363  0.40546882     0.97180
C479        C  0.56933223  0.20386500  0.48768546     0.93580
Al480      Al  0.49123988  0.22936733  0.49586736     1.55560
O481        O  0.58167823  0.30352068  0.45600178    -0.78160
C482        C  0.42627544  0.27714793  0.50734371     0.97750
C483        C  0.49561323  0.20510159  0.41705498     0.92630
O484        O  0.52355252  0.22645686  0.41262724    -0.83480
O485        O  0.28695082  0.35856943  0.59479912    -0.82940
C486        C  0.27782430  0.50949757  0.57224556     0.96420
O487        O  0.30302982  0.48428290  0.57394892    -0.72050
O488        O  0.33028920  0.42247450  0.60163565    -0.75650
Al489      Al  0.30248036  0.43424497  0.55807611     1.48980
C490        C  0.32357138  0.41884408  0.63618003     0.91670
O491        O  0.21411500  0.42296440  0.64369391    -0.81870
O492        O  0.18425144  0.40861516  0.55528562    -0.75420
Al493      Al  0.25167362  0.39511386  0.61545510     1.90120
O494        O  0.19490764  0.46688460  0.60553582    -0.74490
O495        O  0.22847512  0.44633300  0.50551807    -0.74340
O496        O  0.24415227  0.50178759  0.56159402    -0.80000
O497        O  0.28940644  0.44896066  0.50948304    -0.78210
O498        O  0.25647946  0.42785509  0.57746210    -1.14340
O499        O  0.30492094  0.38303285  0.54073162    -0.73540
C500        C  0.30290702  0.35510324  0.56280922     0.97180
C501        C  0.19289722  0.45062165  0.63676521     0.93580
Al502      Al  0.21679750  0.45347521  0.55859703     1.55560
O503        O  0.28958584  0.41737073  0.64707637    -0.78160
C504        C  0.26023067  0.45033197  0.48993517     0.97750
C505        C  0.18763799  0.37601330  0.56986585     0.92630
O506        O  0.21534520  0.36828567  0.59019633    -0.83480
O507        O  0.51552084  0.50079887  0.75439135    -0.82940
C508        C  0.55896845  0.35941027  0.68372038     0.96420
O509        O  0.55352074  0.39139944  0.67024085    -0.72050
O510        O  0.48792705  0.41208046  0.69728172    -0.75650
Al511      Al  0.53376570  0.43588019  0.69195977     1.48980
C512        C  0.46135381  0.41885907  0.72034511     0.91670
O513        O  0.50809721  0.40791342  0.80571502    -0.81870
O514        O  0.60340618  0.42868418  0.78355086    -0.75420
Al515      Al  0.51542097  0.45098946  0.77602832     1.90120
O516        O  0.55511783  0.37142805  0.78846672    -0.74490
O517        O  0.61625428  0.41882491  0.71216826    -0.74340
O518        O  0.56435903  0.35615305  0.71831393    -0.80000
O519        O  0.57904498  0.46049403  0.68523159    -0.78210
O520        O  0.54366043  0.42794442  0.73993723    -1.14340
O521        O  0.51058518  0.48213427  0.69680885    -0.73540
C522        C  0.50535146  0.50701806  0.72112138     0.97180
C523        C  0.52695520  0.37839376  0.80939396     0.93580
Al524      Al  0.58146773  0.39644515  0.74985402     1.55560
O525        O  0.46765714  0.43743050  0.75072228    -0.78160
C526        C  0.61179693  0.44877101  0.69291888     0.97750
C527        C  0.59350048  0.45430331  0.80584774     0.92630
O528        O  0.55944702  0.46621852  0.80609196    -0.83480
C529        C  0.42017415  0.38984500  0.67189718    -0.02990
C530        C  0.42256856  0.40844183  0.70711301     0.06690
C531        C  0.38890719  0.42371923  0.72269640    -0.03100
C532        C  0.35520972  0.42372474  0.70110632    -0.03100
C533        C  0.35650054  0.41400514  0.66211610     0.06830
C534        C  0.39046423  0.39784431  0.64758829    -0.03300
Br535      Br  0.40037665  0.38817854  0.59430987    -0.01850
Br536      Br  0.45719121  0.35275215  0.65597115    -0.01920
Br537      Br  0.30865664  0.43841691  0.72539960    -0.01880
Br538      Br  0.38816049  0.44426942  0.77319543    -0.01860
C539        C  0.57010852  0.31257653  0.59136149    -0.02990
C540        C  0.53904398  0.28770662  0.59188643     0.06690
C541        C  0.52585199  0.27527469  0.62750603    -0.03100
C542        C  0.53544750  0.29608888  0.66040501    -0.03100
C543        C  0.56006938  0.32723216  0.65725733     0.06830
C544        C  0.58061199  0.33215978  0.62375359    -0.03300
Br545      Br  0.62133855  0.36827292  0.62141622    -0.01850
Br546      Br  0.59879435  0.32063279  0.54641344    -0.01920
Br547      Br  0.51283967  0.28410212  0.70850661    -0.01880
Br548      Br  0.49820267  0.22896391  0.63190552    -0.01860
C549        C  0.35201877  0.30700704  0.57805435    -0.02990
C550        C  0.32414501  0.32007609  0.55322246     0.06690
C551        C  0.32305303  0.30437665  0.51668776    -0.03100
C552        C  0.35518262  0.28532919  0.50196207    -0.03100
C553        C  0.38788879  0.28216468  0.52418030     0.06830
C554        C  0.38469392  0.28974403  0.56312685    -0.03300
Br555      Br  0.42564888  0.27806406  0.59580782    -0.01850
Br556      Br  0.34584965  0.31261988  0.63201576    -0.01920
Br557      Br  0.35404969  0.26240789  0.45292313    -0.01880
Br558      Br  0.27545012  0.30337880  0.49082693    -0.01860
C559        C  0.60995795  0.43583606  0.44740492    -0.02990
C560        C  0.64327234  0.43549207  0.46904200     0.06690
C561        C  0.65850896  0.40005198  0.47879260    -0.03100
C562        C  0.63796490  0.36680180  0.47033102    -0.03100
C563        C  0.59946485  0.36928812  0.45929017     0.06830
C564        C  0.58604907  0.40459743  0.44680320    -0.03300
Br565      Br  0.53501721  0.41234401  0.42889695    -0.01850
Br566      Br  0.59919047  0.47703964  0.41418107    -0.01920
Br567      Br  0.66375591  0.31918420  0.47193153    -0.01880
Br568      Br  0.70657879  0.39613896  0.50381122    -0.01860
C569        C  0.64500732  0.52553429  0.63598068    -0.02990
C570        C  0.67168428  0.50741091  0.61212328     0.06690
C571        C  0.68887761  0.47368369  0.62490103    -0.03100
C572        C  0.67391898  0.45510781  0.65706804    -0.03100
C573        C  0.64340633  0.47144156  0.67702622     0.06830
C574        C  0.63499970  0.50949148  0.67053398    -0.03300
Br575      Br  0.60482806  0.53742734  0.70695488    -0.01850
Br576      Br  0.61605678  0.56817135  0.61985562    -0.01920
Br577      Br  0.69510533  0.40826188  0.67394939    -0.01880
Br578      Br  0.72903982  0.45021563  0.59619368    -0.01860
C579        C  0.52641051  0.54420606  0.39447703    -0.02990
C580        C  0.53013958  0.53900663  0.35460708     0.06690
C581        C  0.56483159  0.54993798  0.33761043    -0.03100
C582        C  0.59533519  0.56266210  0.36060521    -0.03100
C583        C  0.58940399  0.56924300  0.39988429     0.06830
C584        C  0.55230666  0.56610526  0.41394279    -0.03300
Br585      Br  0.53596079  0.58991028  0.46084836    -0.01850
Br586      Br  0.49427386  0.51487747  0.42763165    -0.01920
Br587      Br  0.64440861  0.57060857  0.33795694    -0.01880
Br588      Br  0.57277063  0.54187145  0.28438442    -0.01860
C589        C  0.25586620  0.48959280  0.43056731    -0.02990
C590        C  0.26626218  0.45586901  0.44867830     0.06690
C591        C  0.29552789  0.43446747  0.43271814    -0.03100
C592        C  0.32149319  0.45107401  0.40807152    -0.03100
C593        C  0.31341137  0.48628136  0.39106476     0.06830
C594        C  0.27847285  0.50393267  0.40042466    -0.03300
Br595      Br  0.26379256  0.54983518  0.37589235    -0.01850
Br596      Br  0.21205234  0.51659704  0.44841442    -0.01920
Br597      Br  0.37024763  0.42700963  0.40537173    -0.01880
Br598      Br  0.30331994  0.38375132  0.44946196    -0.01860
C599        C  0.42776312  0.37386347  0.34002018    -0.02990
C600        C  0.45295440  0.40152211  0.32689142     0.06690
C601        C  0.49231691  0.39442000  0.32941180    -0.03100
C602        C  0.50564125  0.36345251  0.35051046    -0.03100
C603        C  0.47979906  0.34151181  0.37176278     0.06830
C604        C  0.44088170  0.34488523  0.36368763    -0.03300
Br605      Br  0.40569802  0.30927078  0.38414777    -0.01850
Br606      Br  0.37585450  0.37513457  0.32365645    -0.01920
Br607      Br  0.55937881  0.35316874  0.35173608    -0.01880
Br608      Br  0.52855707  0.42843774  0.30706299    -0.01860
C609        C  0.38902487  0.65657585  0.45136826    -0.02990
C610        C  0.42457176  0.67303527  0.45806490     0.06690
C611        C  0.45473750  0.66398347  0.43331166    -0.03100
C612        C  0.45002872  0.63632239  0.40500274    -0.03100
C613        C  0.41625378  0.61543394  0.40357856     0.06830
C614        C  0.38516352  0.62674167  0.42585116    -0.03300
Br615      Br  0.33814904  0.59902175  0.42494812    -0.01850
Br616      Br  0.34625384  0.67162658  0.48086381    -0.01920
Br617      Br  0.48878457  0.62825651  0.36727087    -0.01880
Br618      Br  0.50325665  0.68639430  0.43982715    -0.01860
C619        C  0.30301056  0.61396531  0.56996289    -0.02990
C620        C  0.33384906  0.61319682  0.59492694     0.06690
C621        C  0.33590611  0.58354589  0.62084473    -0.03100
C622        C  0.31363316  0.55130043  0.61580707    -0.03100
C623        C  0.28980316  0.54796544  0.58408732     0.06830
C624        C  0.28227164  0.58062986  0.56282731    -0.03300
Br625      Br  0.24547518  0.57982284  0.52322143    -0.01850
Br626      Br  0.28529564  0.66140503  0.55140524    -0.01920
Br627      Br  0.31520856  0.51218501  0.65318795    -0.01880
Br628      Br  0.36562424  0.58910400  0.66574819    -0.01860
C629        C  0.47897203  0.61047054  0.70360325    -0.02990
C630        C  0.46257206  0.60632176  0.66753762     0.06690
C631        C  0.45720599  0.56983188  0.65280268    -0.03100
C632        C  0.46401209  0.53862009  0.67513449    -0.03100
C633        C  0.48616770  0.54195833  0.70801435     0.06830
C634        C  0.49230709  0.57830830  0.72325733    -0.03300
Br635      Br  0.51849563  0.58440878  0.77034248    -0.01850
Br636      Br  0.48624619  0.66002662  0.72420106    -0.01920
Br637      Br  0.43975135  0.49186434  0.66076539    -0.01880
Br638      Br  0.44300763  0.56009158  0.60112754    -0.01860
C639        C  0.61277244  0.66303474  0.56480685    -0.02990
C640        C  0.62061912  0.66040118  0.52588775     0.06690
C641        C  0.60208679  0.68601084  0.50166966    -0.03100
C642        C  0.57095198  0.70674521  0.51577487    -0.03100
C643        C  0.55530871  0.69714158  0.55093196     0.06830
C644        C  0.57802849  0.67816967  0.57700333    -0.03300
Br645      Br  0.56151517  0.67293270  0.62856008    -0.01850
Br646      Br  0.65193047  0.65154987  0.60019817    -0.01920
Br647      Br  0.55156054  0.74997046  0.48970131    -0.01880
Br648      Br  0.61678315  0.69174034  0.44957008    -0.01860
C649        C  0.31914669  0.85558617  0.58899454    -0.02990
C650        C  0.29321384  0.85463493  0.55915460     0.06690
C651        C  0.29628802  0.82603596  0.53185732    -0.03100
C652        C  0.32401769  0.79773496  0.53556712    -0.03100
C653        C  0.34528380  0.79489928  0.56924165     0.06830
C654        C  0.34260744  0.82450088  0.59591923    -0.03300
Br655      Br  0.37069796  0.82377821  0.64226818    -0.01850
Br656      Br  0.32431934  0.90004637  0.61938276    -0.01920
Br657      Br  0.33210355  0.76384604  0.49410813    -0.01880
Br658      Br  0.26289239  0.82666027  0.48898294    -0.01860
C659        C  0.04824036  0.88776751  0.71284368    -0.02990
C660        C  0.04055314  0.92545590  0.72263018     0.06690
C661        C  0.06675424  0.95331066  0.71237424    -0.03100
C662        C  0.09460609  0.94538585  0.68473733    -0.03100
C663        C  0.09754674  0.90881012  0.66919742     0.06830
C664        C  0.07704396  0.87935176  0.68620092    -0.03300
Br665      Br  0.08654767  0.82814133  0.67114564    -0.01850
Br666      Br  0.01676772  0.84849050  0.73336163    -0.01920
Br667      Br  0.12808273  0.98468359  0.66788651    -0.01880
Br668      Br  0.06449297  0.00159769  0.73726326    -0.01860
C669        C  0.13269379  0.28753966  0.59406543    -0.02990
C670        C  0.10949599  0.28220598  0.56222999     0.06690
C671        C  0.11290652  0.30754598  0.53152914    -0.03100
C672        C  0.13863855  0.33809304  0.53306759    -0.03100
C673        C  0.15897697  0.34530130  0.56644753     0.06830
C674        C  0.15441314  0.32032804  0.59744986    -0.03300
Br675      Br  0.17300122  0.33268998  0.64748579    -0.01850
Br676      Br  0.13271189  0.25253003  0.63586111    -0.01920
Br677      Br  0.14598167  0.36951008  0.48941225    -0.01880
Br678      Br  0.08276798  0.30025574  0.48693784    -0.01860
C679        C  0.07334848  0.06878844  0.54747578    -0.02990
C680        C  0.08645729  0.10208090  0.56529030     0.06690
C681        C  0.12444228  0.10327009  0.57817382    -0.03100
C682        C  0.14662886  0.07016856  0.57859669    -0.03100
C683        C  0.13228919  0.03662532  0.56315919     0.06830
C684        C  0.09726837  0.03749447  0.54416529    -0.03300
Br685      Br  0.08208051  0.99690743  0.51107467    -0.01850
Br686      Br  0.02161525  0.06253943  0.53038288    -0.01920
Br687      Br  0.19585921  0.07064122  0.60155969    -0.01880
Br688      Br  0.14701040  0.14990084  0.59474333    -0.01860
C689        C  0.00871655  0.08907278  0.67740858    -0.02990
C690        C  0.98929199  0.12319195  0.68112575     0.06690
C691        C  0.95907661  0.12535611  0.70743034    -0.03100
C692        C  0.94753250  0.09254319  0.72748085    -0.03100
C693        C  0.96238786  0.05694284  0.71686299     0.06830
C694        C  0.99202176  0.05589481  0.68976701    -0.03300
Br695      Br  0.00546361  0.01144045  0.66136271    -0.01850
Br696      Br  0.05830392  0.08714999  0.65489982    -0.01920
Br697      Br  0.90953132  0.09584664  0.76647925    -0.01880
Br698      Br  0.93335733  0.17246414  0.71491624    -0.01860
C699        C  0.06680040  0.15240685  0.41966580    -0.02990
C700        C  0.04141281  0.12991757  0.39934009     0.06690
C701        C  0.00251209  0.13646053  0.40363917    -0.03100
C702        C  0.98883176  0.15694155  0.43473376    -0.03100
C703        C  0.01430275  0.17561087  0.45900559     0.06830
C704        C  0.05354790  0.17432239  0.45037835    -0.03300
Br705      Br  0.09014637  0.19689024  0.48351347    -0.01850
Br706      Br  0.11816649  0.15720272  0.40208901    -0.01920
Br707      Br  0.93535773  0.15537660  0.44503856    -0.01880
Br708      Br  0.96851102  0.12251326  0.36387614    -0.01860
C709        C  0.17976463  0.00476278  0.45344053    -0.02990
C710        C  0.18592423  0.96582857  0.45494848     0.06690
C711        C  0.17949150  0.94432284  0.42242503    -0.03100
C712        C  0.15713677  0.95915404  0.39318562    -0.03100
C713        C  0.14403908  0.99675501  0.39547250     0.06830
C714        C  0.15725571  0.01993301  0.42491818    -0.03300
Br715      Br  0.13906335  0.07028886  0.43131925    -0.01850
Br716      Br  0.20306431  0.03739993  0.48992201    -0.01920
Br717      Br  0.14268760  0.92720955  0.35183834    -0.01880
Br718      Br  0.20778725  0.89859618  0.41555823    -0.01860
C719        C  0.61566962  0.10890149  0.50874619    -0.02990
C720        C  0.65296450  0.12018033  0.51671243     0.06690
C721        C  0.66101173  0.15882485  0.52027056    -0.03100
C722        C  0.63311075  0.18594115  0.51303108    -0.03100
C723        C  0.59721124  0.17503067  0.50017476     0.06830
C724        C  0.58800933  0.13615306  0.49971851    -0.03300
Br725      Br  0.53896822  0.11934711  0.48307841    -0.01850
Br726      Br  0.60391465  0.05597308  0.50516519    -0.01920
Br727      Br  0.64418165  0.23786988  0.52229162    -0.01880
Br728      Br  0.71119507  0.17506963  0.53286487    -0.01860
C729        C  0.89308917  0.03781620  0.43092094    -0.02990
C730        C  0.85896446  0.05021139  0.41471655     0.06690
C731        C  0.85743646  0.05523904  0.37501005    -0.03100
C732        C  0.89042882  0.04912202  0.35265594    -0.03100
C733        C  0.92306380  0.03374186  0.36942616     0.06830
C734        C  0.92198138  0.02434432  0.40802546    -0.03300
Br735      Br  0.95772742  0.98986699  0.43042032    -0.01850
Br736      Br  0.90411011  0.04345359  0.48422238    -0.01920
Br737      Br  0.89090490  0.06178489  0.29983730    -0.01880
Br738      Br  0.81106068  0.07008988  0.35097273    -0.01860
C739        C  0.82352013  0.16756075  0.56138813    -0.02990
C740        C  0.82042949  0.16026257  0.52255708     0.06690
C741        C  0.84199162  0.18189778  0.49717338    -0.03100
C742        C  0.87115941  0.20517202  0.51104438    -0.03100
C743        C  0.88133242  0.20283158  0.54954895     0.06830
C744        C  0.85515551  0.18706243  0.57514215    -0.03300
Br745      Br  0.86328290  0.19121668  0.62869379    -0.01850
Br746      Br  0.78302294  0.15322576  0.59464754    -0.01920
Br747      Br  0.89711352  0.23909342  0.47735152    -0.01880
Br748      Br  0.83315830  0.17752161  0.44372127    -0.01860
C749        C  0.81733022  0.01173078  0.67349807    -0.02990
C750        C  0.81233728  0.97302213  0.67812381     0.06690
C751        C  0.78170983  0.95553655  0.66017204    -0.03100
C752        C  0.76056483  0.97559681  0.63284094    -0.03100
C753        C  0.77294654  0.01191486  0.62069762     0.06830
C754        C  0.80088824  0.03023865  0.64293376    -0.03300
Br755      Br  0.82286007  0.07806935  0.63047518    -0.00890
Br756      Br  0.84840300  0.03888756  0.70882021    -0.01920
Br757      Br  0.71773925  0.95070329  0.61032310    -0.01880
Br758      Br  0.77076821  0.90367983  0.67114988    -0.01860
C759        C  0.85176833  0.64018226  0.49212024    -0.02990
C760        C  0.84281108  0.67882909  0.49522182     0.06690
C761        C  0.80708046  0.68993637  0.50898040    -0.03100
C762        C  0.78014066  0.66253122  0.51881378    -0.03100
C763        C  0.78770300  0.62387729  0.51245958     0.06830
C764        C  0.82433434  0.61273302  0.50063031    -0.03300
Br765      Br  0.83600359  0.56034999  0.49105882    -0.01850
Br766      Br  0.89999969  0.62467923  0.47122702    -0.01920
Br767      Br  0.73191117  0.67814467  0.53944273    -0.01880
Br768      Br  0.79411094  0.74265807  0.51215509    -0.01860
C769        C  0.96479964  0.81148882  0.60589342    -0.02990
C770        C  0.93552240  0.78954455  0.59129837     0.06690
C771        C  0.89966639  0.79074884  0.60887423    -0.03100
C772        C  0.89253620  0.81584004  0.63929833    -0.03100
C773        C  0.92101739  0.84141945  0.65086322     0.06830
C774        C  0.95717160  0.83923301  0.63302377    -0.03300
Br775      Br  0.99552288  0.87738140  0.63884442    -0.01850
Br776      Br  0.01460811  0.80780145  0.58386708    -0.01920
Br777      Br  0.84182170  0.81934484  0.65964424    -0.01880
Br778      Br  0.85948708  0.76086234  0.58809606    -0.01860
C779        C  0.82152308  0.91580253  0.52790709    -0.02990
C780        C  0.79137424  0.92578885  0.50375127     0.06690
C781        C  0.78130616  0.90009473  0.47492830    -0.03100
C782        C  0.80532506  0.86922093  0.46592288    -0.03100
C783        C  0.83893426  0.86315574  0.48656790     0.06830
C784        C  0.84553418  0.88552974  0.51888701    -0.03300
Br785      Br  0.88754762  0.87568232  0.55182075    -0.01850
Br786      Br  0.83012177  0.94260684  0.57476435    -0.01920
Br787      Br  0.79338004  0.83733004  0.42340653    -0.01880
Br788      Br  0.73440830  0.90584624  0.44855378    -0.01860
C789        C  0.00686988  0.87874888  0.33571907    -0.02990
C790        C  0.98732680  0.91318457  0.33334745     0.06690
C791        C  0.94828790  0.91368882  0.34220254    -0.03100
C792        C  0.93209684  0.88440176  0.36324197    -0.03100
C793        C  0.95342119  0.85186127  0.37040479     0.06830
C794        C  0.98870485  0.84731186  0.35208592    -0.03300
Br795      Br  0.00914298  0.79743264  0.34605100    -0.01850
Br796      Br  0.05782811  0.87483915  0.31687611    -0.01920
Br797      Br  0.88212077  0.89077706  0.38470504    -0.01880
Br798      Br  0.91589081  0.95213935  0.32271312    -0.01860
C799        C  0.07360514  0.76122514  0.52818136    -0.02990
C800        C  0.05803528  0.77390263  0.49393328     0.06690
C801        C  0.07835223  0.80017055  0.47270233    -0.03100
C802        C  0.10945479  0.81870856  0.48829547    -0.03100
C803        C  0.11898629  0.81343730  0.52665763     0.06830
C804        C  0.10367640  0.78156696  0.54518774    -0.03300
Br805      Br  0.12152113  0.76684646  0.59410364    -0.01850
Br806      Br  0.05097702  0.71871040  0.55318090    -0.01920
Br807      Br  0.13714783  0.85284583  0.45678031    -0.01880
Br808      Br  0.06090761  0.81392266  0.42354162    -0.01860
C809        C  0.90530843  0.81085633  0.88445998    -0.02990
C810        C  0.94123327  0.80130501  0.90005540     0.06690
C811        C  0.97366360  0.81934553  0.88529597    -0.03100
C812        C  0.97016857  0.84489719  0.85465430    -0.03100
C813        C  0.93478530  0.85031801  0.83673612     0.06830
C814        C  0.90253796  0.83279802  0.85188125    -0.03300
Br815      Br  0.85308517  0.84027690  0.82962104    -0.01850
Br816      Br  0.85788118  0.79708871  0.90840952    -0.01920
Br817      Br  0.01395718  0.87185829  0.83679169    -0.01880
Br818      Br  0.02259294  0.80895278  0.90638852    -0.01860
C819        C  0.82379687  0.49208539  0.36338588    -0.02990
C820        C  0.83419794  0.52416423  0.34245818     0.06690
C821        C  0.81754160  0.55929400  0.35226954    -0.03100
C822        C  0.79471102  0.56279394  0.38422540    -0.03100
C823        C  0.77957549  0.53048026  0.40145976     0.06830
C824        C  0.79524491  0.49481756  0.39178173    -0.03300
Br825      Br  0.77772620  0.44964811  0.41622204    -0.01850
Br826      Br  0.84636489  0.44420571  0.35080480    -0.01920
Br827      Br  0.78756131  0.61300801  0.40538233    -0.01880
Br828      Br  0.81909311  0.60336750  0.32098843    -0.01860
C829        C  0.91764481  0.66265200  0.31108157    -0.02990
C830        C  0.93045836  0.62571073  0.31760236     0.06690
C831        C  0.95238732  0.61841763  0.35011968    -0.03100
C832        C  0.95893192  0.64707789  0.37705896    -0.03100
C833        C  0.94231688  0.68308147  0.37263393     0.06830
C834        C  0.92520434  0.69150673  0.33732632    -0.03300
Br835      Br  0.91407064  0.74272458  0.32218304    -0.01850
Br836      Br  0.88875613  0.67427633  0.26643151    -0.01920
Br837      Br  0.99261460  0.63661445  0.41852774    -0.01880
Br838      Br  0.97050726  0.56819372  0.36061878    -0.01860
C839        C  0.86660790  0.63607538  0.12177898    -0.02990
C840        C  0.89255447  0.62611429  0.14995857     0.06690
C841        C  0.92200681  0.65158038  0.15891038    -0.03100
C842        C  0.92759756  0.68397471  0.13679531    -0.03100
C843        C  0.90692178  0.68889475  0.10365720     0.06830
C844        C  0.87357641  0.66784415  0.09916881    -0.03300
Br845      Br  0.83703765  0.68423351  0.06296889    -0.01850
Br846      Br  0.82150487  0.60694385  0.11450551    -0.01920
Br847      Br  0.95798848  0.72511062  0.15456265    -0.01880
Br848      Br  0.95677279  0.64108751  0.19924216    -0.01860
C849        C  0.02096743  0.15833652  0.24643563    -0.02990
C850        C  0.01509125  0.12078498  0.23516309     0.06690
C851        C  0.99879066  0.11344478  0.19965085    -0.03100
C852        C  0.99336422  0.14289786  0.17359814    -0.03100
C853        C  0.00379438  0.18031039  0.18326053     0.06830
C854        C  0.01362109  0.18802157  0.22135685    -0.03300
Br855      Br  0.01510555  0.23903215  0.24089659    -0.01850
Br856      Br  0.03886792  0.16959019  0.29652803    -0.01920
Br857      Br  0.97134559  0.13060805  0.12525474    -0.01880
Br858      Br  0.98586684  0.06259036  0.18550184    -0.01860
C859        C  0.95633091  0.34877668  0.20702505    -0.02990
C860        C  0.99454031  0.35114092  0.19560256     0.06690
C861        C  0.01677916  0.37970939  0.21150429    -0.03100
C862        C  0.99889817  0.41197135  0.22669850    -0.03100
C863        C  0.95900349  0.41357332  0.22985401     0.06830
C864        C  0.93894073  0.37969183  0.22559054    -0.03300
Br865      Br  0.89124084  0.37400097  0.25088705    -0.01850
Br866      Br  0.92990572  0.30186181  0.20059946    -0.01920
Br867      Br  0.02933597  0.45283741  0.24416225    -0.01880
Br868      Br  0.07078898  0.37303388  0.21533516    -0.01860
C869        C  0.34147120  0.48628518  0.17970008    -0.02990
C870        C  0.33425621  0.49938739  0.21667980     0.06690
C871        C  0.29748183  0.51351929  0.22470797    -0.03100
C872        C  0.27373586  0.52548739  0.19565583    -0.03100
C873        C  0.28090000  0.51394216  0.15802496     0.06830
C874        C  0.31380628  0.49129268  0.15108568    -0.03300
Br875      Br  0.32157617  0.46591474  0.10332840    -0.01850
Br876      Br  0.38853149  0.46113747  0.16819141    -0.01920
Br877      Br  0.23549618  0.56237563  0.20902840    -0.01880
Br878      Br  0.27785735  0.51535616  0.27572391    -0.01860
C879        C  0.17589505  0.38743897  0.05663803    -0.02990
C880        C  0.17297372  0.42190612  0.07616570     0.06690
C881        C  0.14725352  0.42467174  0.10617644    -0.03100
C882        C  0.11762123  0.39904433  0.10943685    -0.03100
C883        C  0.12020701  0.36372896  0.09113593     0.06830
C884        C  0.15100517  0.35738254  0.06587928    -0.03300
Br885      Br  0.15621313  0.30995300  0.04013471    -0.01850
Br886      Br  0.21418780  0.38182889  0.01820420    -0.01920
Br887      Br  0.07145985  0.41743298  0.13229725    -0.01880
Br888      Br  0.15524279  0.46101669  0.14532386    -0.01860
C889        C  0.05391116  0.54927667  0.12428060    -0.02990
C890        C  0.08842412  0.54215236  0.14270591     0.06690
C891        C  0.08907550  0.54169829  0.18266598    -0.03100
C892        C  0.05487887  0.54347462  0.20361831    -0.03100
C893        C  0.01997639  0.54600376  0.18461105     0.06830
C894        C  0.02059554  0.55398110  0.14523323    -0.03300
Br895      Br  0.97776585  0.57570780  0.11871483    -0.01850
Br896      Br  0.05114596  0.55498520  0.06989775    -0.01920
Br897      Br  0.05664206  0.54749349  0.25798664    -0.01880
Br898      Br  0.13627903  0.53777587  0.20914015    -0.01860
C899        C  0.11698013  0.66110387  0.00940264    -0.02990
C900        C  0.11905899  0.64608681  0.04608682     0.06690
C901        C  0.09120415  0.65619975  0.07262706    -0.03100
C902        C  0.05835902  0.67514904  0.06095669    -0.03100
C903        C  0.05331369  0.68554370  0.02285466     0.06830
C904        C  0.08376002  0.67992794  0.99742133    -0.03300
Br905      Br  0.07897478  0.69621638  0.94598017    -0.01850
Br906      Br  0.16092082  0.65828274  0.97730503    -0.01920
Br907      Br  0.01852401  0.68161064  0.09680891    -0.01880
Br908      Br  0.09701933  0.64169184  0.12476663    -0.01860
C909        C  0.12413506  0.45923607  0.65387287    -0.02990
C910        C  0.16270001  0.46207366  0.66415364     0.06690
C911        C  0.17160743  0.47348046  0.70112266    -0.03100
C912        C  0.14284497  0.47684434  0.72880494    -0.03100
C913        C  0.10471967  0.47024517  0.71937327     0.06830
C914        C  0.09526513  0.46421745  0.68126446    -0.03300
Br915      Br  0.04285672  0.45830870  0.66741403    -0.01850
Br916      Br  0.11042331  0.44437925  0.60332292    -0.01920
Br917      Br  0.15554179  0.48920247  0.78020790    -0.01880
Br918      Br  0.22298035  0.48538726  0.71346263    -0.01860
C919        C  0.97869399  0.32961097  0.71675731    -0.02990
C920        C  0.01352940  0.34870624  0.72093626     0.06690
C921        C  0.03981000  0.34780710  0.69106016    -0.03100
C922        C  0.03063901  0.32974290  0.65727519    -0.03100
C923        C  0.99931620  0.30562933  0.65549202     0.06830
C924        C  0.97276225  0.30596420  0.68516260    -0.03300
Br925      Br  0.92859762  0.27452099  0.68195457    -0.01850
Br926      Br  0.93894339  0.33625022  0.75308731    -0.01920
Br927      Br  0.05779799  0.34218197  0.61209276    -0.01880
Br928      Br  0.08921259  0.36967379  0.69649597    -0.01860
C929        C  0.05327642  0.29329796  0.95061001    -0.02990
C930        C  0.01924421  0.29363725  0.97128575     0.06690
C931        C  0.98838563  0.31375204  0.95786933    -0.03100
C932        C  0.99392293  0.34131397  0.93064123    -0.03100
C933        C  0.02758535  0.34100715  0.90785831     0.06830
C934        C  0.05683731  0.31514369  0.91745481    -0.03300
Br935      Br  0.10375977  0.31209944  0.88934464    -0.01850
Br936      Br  0.09474430  0.26336989  0.96887135    -0.01920
Br937      Br  0.95853558  0.38319626  0.93461460    -0.01880
Br938      Br  0.93907007  0.30662850  0.98009390    -0.01860
C939        C  0.14689255  0.52477141  0.92487844    -0.02990
C940        C  0.17938699  0.50729283  0.93915000     0.06690
C941        C  0.19062178  0.47285186  0.92197388    -0.03100
C942        C  0.16611189  0.45458402  0.89569314    -0.03100
C943        C  0.12862266  0.46809935  0.89088443     0.06830
C944        C  0.11931785  0.50300874  0.90773617    -0.03300
Br945      Br  0.06868498  0.51930267  0.91726850    -0.01850
Br946      Br  0.13733472  0.57785111  0.93155526    -0.01920
Br947      Br  0.18234292  0.40951404  0.86997418    -0.01880
Br948      Br  0.23926950  0.45158330  0.93322505    -0.01860
C949        C  0.96202837  0.61467810  0.85367353    -0.02990
C950        C  0.96604553  0.61531164  0.89365413     0.06690
C951        C  0.98295964  0.58374487  0.91060054    -0.03100
C952        C  0.98297774  0.54987895  0.89170316    -0.03100
C953        C  0.98459991  0.54906729  0.85205788     0.06830
C954        C  0.97425103  0.58228147  0.83263082    -0.03300
Br955      Br  0.97534107  0.58297446  0.77835473    -0.01850
Br956      Br  0.94151421  0.65738425  0.82763737    -0.01920
Br957      Br  0.96871220  0.50699668  0.92170418    -0.01880
Br958      Br  0.00796657  0.58463437  0.95915813    -0.01860
C959        C  0.63983046  0.47099435  0.90045714    -0.02990
C960        C  0.67366468  0.45009777  0.89364981     0.06690
C961        C  0.68483358  0.44336551  0.85602658    -0.03100
C962        C  0.66099388  0.45402234  0.82635113    -0.03100
C963        C  0.62311607  0.46549360  0.83381569     0.06830
C964        C  0.61383008  0.47710905  0.87084893    -0.03300
Br965      Br  0.56600431  0.50136063  0.88137190    -0.01850
Br966      Br  0.62805405  0.49123559  0.94986080    -0.01920
Br967      Br  0.68084821  0.45344468  0.77530534    -0.01880
Br968      Br  0.73303782  0.42018860  0.84446393    -0.01860
C969        C  0.82220357  0.54897876  0.02241818    -0.02990
C970        C  0.79232192  0.54354493  0.99689652     0.06690
C971        C  0.78547730  0.57061415  0.96907337    -0.03100
C972        C  0.80909103  0.60257930  0.96610826    -0.03100
C973        C  0.84163824  0.60600872  0.98946661     0.06830
C974        C  0.84837598  0.57787018  0.01694795    -0.03300
Br975      Br  0.89591302  0.57318066  0.04395630    -0.01850
Br976      Br  0.82918080  0.51613536  0.06493215    -0.01920
Br977      Br  0.79678553  0.63961975  0.92839179    -0.01880
Br978      Br  0.74503324  0.56220631  0.93371091    -0.01860
C979        C  0.86870578  0.38355181  0.88237089    -0.02990
C980        C  0.84510167  0.41428533  0.89118280     0.06690
C981        C  0.84835147  0.44792877  0.87066136    -0.03100
C982        C  0.87835548  0.45241658  0.84470614    -0.03100
C983        C  0.90474268  0.42313326  0.83904965     0.06830
C984        C  0.89847859  0.38792102  0.85620491    -0.03300
Br985      Br  0.93322063  0.34690002  0.84754352    -0.01850
Br986      Br  0.86165364  0.33627039  0.90805872    -0.01920
Br987      Br  0.88574925  0.49980298  0.81949400    -0.01880
Br988      Br  0.81318174  0.48849768  0.88005918    -0.01860
C989        C  0.88811531  0.32788478  0.07706722    -0.02990
C990        C  0.89752232  0.29053196  0.06822703     0.06690
C991        C  0.87419550  0.27153363  0.04183426    -0.03100
C992        C  0.84477389  0.29157021  0.02267993    -0.03100
C993        C  0.84253160  0.33138801  0.02604116     0.06830
C994        C  0.86785983  0.34903320  0.05142867    -0.03300
Br995      Br  0.88432666  0.40074688  0.04625178    -0.01850
Br996      Br  0.90805653  0.35298603  0.12079238    -0.01920
Br997      Br  0.80978051  0.26503108  0.99103464    -0.01880
Br998      Br  0.88326391  0.21918541  0.03139792    -0.01860
C999        C  0.76893541  0.50731153  0.15350147    -0.02990
C1000       C  0.79798330  0.48603001  0.17058176     0.06690
C1001       C  0.79962445  0.44698305  0.16263030    -0.03100
C1002       C  0.78001933  0.43186173  0.13184995    -0.03100
C1003       C  0.75791226  0.45544764  0.10944378     0.06830
C1004       C  0.74959496  0.49220850  0.12213308    -0.03300
Br1005     Br  0.71564287  0.52324326  0.09348619    -0.01850
Br1006     Br  0.75578831  0.55680343  0.17178055    -0.01920
Br1007     Br  0.78658529  0.37976371  0.11740697    -0.01880
Br1008     Br  0.82896502  0.41384890  0.19318005    -0.01860
C1009       C  0.76920293  0.80336511  0.01082324    -0.02990
C1010       C  0.77869637  0.84120349  0.01853111     0.06690
C1011       C  0.81654976  0.85021449  0.02568260    -0.03100
C1012       C  0.84538747  0.82408284  0.01670324    -0.03100
C1013       C  0.83620221  0.78685848  0.00348847     0.06830
C1014       C  0.79749941  0.77644157  0.00270921    -0.03300
Br1015     Br  0.78153165  0.72619721  0.98918222    -0.01850
Br1016     Br  0.71678021  0.78823280  0.01234654    -0.01920
Br1017     Br  0.89668975  0.84351571  0.01919776    -0.01880
Br1018     Br  0.82929453  0.89948596  0.04548376    -0.01860
C1019       C  0.81706215  0.92973978  0.90260135    -0.02990
C1020       C  0.77914096  0.94084425  0.89663003     0.06690
C1021       C  0.77104503  0.96285940  0.86452240    -0.03100
C1022       C  0.79996222  0.97084999  0.83757679    -0.03100
C1023       C  0.83775236  0.95940096  0.84377424     0.06830
C1024       C  0.84619506  0.94074111  0.87765542    -0.03300
Br1025     Br  0.89798350  0.92889562  0.88959383    -0.01850
Br1026     Br  0.82911190  0.89545961  0.94258693    -0.01920
Br1027     Br  0.78818648  0.99733261  0.79187861    -0.01880
Br1028     Br  0.72084118  0.98284050  0.85797849    -0.01860
C1029       C  0.55057122  0.33903884  0.85990097    -0.02990
C1030       C  0.51908257  0.35266502  0.84080531     0.06690
C1031       C  0.48268524  0.33870563  0.84995792    -0.03100
C1032       C  0.47896826  0.30955641  0.87698671    -0.03100
C1033       C  0.51172561  0.29183654  0.89097668     0.06830
C1034       C  0.54773975  0.30551975  0.87932778    -0.03300
Br1035     Br  0.59413727  0.27733947  0.88009551    -0.01850
Br1036     Br  0.59834212  0.36604389  0.85952630    -0.01920
Br1037     Br  0.42985065  0.29086393  0.89124874    -0.01880
Br1038     Br  0.43875880  0.35774955  0.82449101    -0.01860
C1039       C  0.59713681  0.31849647  0.98274359    -0.02990
C1040       C  0.60915225  0.28085656  0.98704171     0.06690
C1041       C  0.64333452  0.27363796  0.00558970    -0.03100
C1042       C  0.66793580  0.30359901  0.01417197    -0.03100
C1043       C  0.65888733  0.34077501  0.00291622     0.06830
C1044       C  0.62234000  0.34827140  0.98902995    -0.03300
Br1045     Br  0.60625506  0.39849330  0.97627155    -0.01850
Br1046     Br  0.54532566  0.33030140  0.97123135    -0.01920
Br1047     Br  0.71325437  0.29382579  0.04269300    -0.01880
Br1048     Br  0.65484813  0.22320343  0.02154413    -0.01860
C1049       C  0.67793228  0.07252970  0.96345581    -0.02990
C1050       C  0.65820747  0.03817002  0.96814339     0.06690
C1051       C  0.62139415  0.03537930  0.95306821    -0.03100
C1052       C  0.60921856  0.06227834  0.92798071    -0.03100
C1053       C  0.62109796  0.09902537  0.93456976     0.06830
C1054       C  0.65782612  0.10424410  0.94950545    -0.03300
Br1055     Br  0.67990838  0.15351738  0.95151669    -0.01850
Br1056     Br  0.72887665  0.07790020  0.98145829    -0.01920
Br1057     Br  0.56820891  0.05116607  0.89418301    -0.01880
Br1058     Br  0.58039826  0.01356160  0.98114735    -0.01860
C1059       C  0.64103280  0.05363041  0.40039636    -0.02990
C1060       C  0.67108505  0.02776340  0.40193239     0.06690
C1061       C  0.67026674  0.99563118  0.37844073    -0.03100
C1062       C  0.63881410  0.98906987  0.35473577    -0.03100
C1063       C  0.60808932  0.01440959  0.35489073     0.06830
C1064       C  0.60856906  0.04525584  0.37984607    -0.03300
Br1065     Br  0.56483503  0.07718161  0.38531672    -0.01850
Br1066     Br  0.64688735  0.10411049  0.41903954    -0.01920
Br1067     Br  0.63775621  0.94604589  0.32177871    -0.01880
Br1068     Br  0.71449142  0.96447306  0.37423793    -0.01860
C1069       C  0.47769748  0.11559166  0.35997349    -0.02990
C1070       C  0.50200712  0.12314962  0.32831835     0.06690
C1071       C  0.51347819  0.16102588  0.32286029    -0.03100
C1072       C  0.50215669  0.18914519  0.34860096    -0.03100
C1073       C  0.48713907  0.17947881  0.38436309     0.06830
C1074       C  0.47223915  0.14301332  0.38881927    -0.03300
Br1075     Br  0.44447695  0.13019552  0.43411101    -0.01850
Br1076     Br  0.45173582  0.06804488  0.36567733    -0.01920
Br1077     Br  0.50653167  0.24143814  0.33405858    -0.01880
Br1078     Br  0.54873891  0.17612044  0.28387304    -0.01860
C1079       C  0.57110288  0.11534269  0.08044261    -0.02990
C1080       C  0.55349835  0.15105153  0.07918547     0.06690
C1081       C  0.54147408  0.16756877  0.11362523    -0.03100
C1082       C  0.53873796  0.14505551  0.14636992    -0.03100
C1083       C  0.54871845  0.10658587  0.14470522     0.06830
C1084       C  0.56500764  0.09188429  0.11135401    -0.03300
Br1085     Br  0.57689332  0.03905239  0.10580790    -0.01850
Br1086     Br  0.60574428  0.09891293  0.04111305    -0.01920
Br1087     Br  0.51616045  0.16536228  0.19156630    -0.01880
Br1088     Br  0.52845498  0.22027778  0.11621275    -0.01860
C1089       C  0.67943989  0.95242918  0.14704103    -0.02990
C1090       C  0.68369032  0.97424561  0.11421580     0.06690
C1091       C  0.67976086  0.01382865  0.11764809    -0.03100
C1092       C  0.66555000  0.03003964  0.15148532    -0.03100
C1093       C  0.65389355  0.00693182  0.18154598     0.06830
C1094       C  0.66354036  0.96842699  0.18015744    -0.03300
Br1095     Br  0.65163321  0.93703635  0.22257813    -0.01850
Br1096     Br  0.69771311  0.90154328  0.14725570    -0.01920
Br1097     Br  0.65739833  0.08360977  0.15540736    -0.01880
Br1098     Br  0.69062706  0.04606801  0.07548405    -0.01860
C1099       C  0.18116942  0.16839007  0.06778457    -0.02990
C1100       C  0.17323092  0.13257416  0.05205149     0.06690
C1101       C  0.13692568  0.12668554  0.03656705    -0.03100
C1102       C  0.10742419  0.15299978  0.04345270    -0.03100
C1103       C  0.11386747  0.18536828  0.06638618     0.06830
C1104       C  0.15161851  0.19321503  0.07747351    -0.03300
Br1105     Br  0.16473428  0.23670430  0.10788864    -0.01850
Br1106     Br  0.23291622  0.18504617  0.07495845    -0.01920
Br1107     Br  0.05792107  0.14193785  0.02331988    -0.01880
Br1108     Br  0.12730699  0.08350787  0.00468472    -0.01860
C1109       C  0.18054446  0.01038062  0.19891274    -0.02990
C1110       C  0.16744857  0.01652231  0.16198574     0.06690
C1111       C  0.12892898  0.00987377  0.15366966    -0.03100
C1112       C  0.10322754  0.00070263  0.18286197    -0.03100
C1113       C  0.11549701  0.00029385  0.22072067     0.06830
C1114       C  0.15497890  0.00063831  0.22768644    -0.03300
Br1115     Br  0.17504259  0.98695831  0.27643915    -0.01850
Br1116     Br  0.23340357  0.01631800  0.21120508    -0.01920
Br1117     Br  0.05211593  0.98705903  0.17012832    -0.01880
Br1118     Br  0.10999278  0.01738798  0.10320817    -0.01860
C1119       C  0.35822432  0.04846194  0.20168776    -0.02990
C1120       C  0.35253117  0.02845479  0.16757850     0.06690
C1121       C  0.38078653  0.00297675  0.15535963    -0.03100
C1122       C  0.41652893  0.00348413  0.17143013    -0.03100
C1123       C  0.42234275  0.02127488  0.20706768     0.06830
C1124       C  0.39222930  0.04342710  0.22240897    -0.03300
Br1125     Br  0.39817295  0.07072832  0.26921464    -0.01850
Br1126     Br  0.32118461  0.08488034  0.21864882    -0.01920
Br1127     Br  0.45685242  0.98483006  0.13826817    -0.01880
Br1128     Br  0.37272367  0.96710872  0.11499896    -0.01860
C1129       C  0.37542973  0.17658430  0.00502119    -0.02990
C1130       C  0.41109540  0.17071755  0.02157190     0.06690
C1131       C  0.41262834  0.15187045  0.05641033    -0.03100
C1132       C  0.38112704  0.13311478  0.07088046    -0.03100
C1133       C  0.34685496  0.13362767  0.05115819     0.06830
C1134       C  0.34342987  0.15690576  0.01910487    -0.03300
Br1135     Br  0.29555362  0.16048421  0.99396060    -0.01850
Br1136     Br  0.37031875  0.21198607  0.96448314    -0.01920
Br1137     Br  0.38742338  0.10312310  0.11559985    -0.01880
Br1138     Br  0.45800215  0.15108708  0.08524407    -0.01860
C1139       C  0.46251516  0.62690155  0.21008872    -0.02990
C1140       C  0.42758683  0.62035812  0.22900050     0.06690
C1141       C  0.39565851  0.64167125  0.21857539    -0.03100
C1142       C  0.39868257  0.66949428  0.19057144    -0.03100
C1143       C  0.43345208  0.67582199  0.17114823     0.06830
C1144       C  0.46526964  0.65420474  0.18110532    -0.03300
Br1145     Br  0.51296936  0.66321658  0.15595918    -0.01850
Br1146     Br  0.50724222  0.59970126  0.22470092    -0.01920
Br1147     Br  0.35336096  0.69725213  0.17891810    -0.01880
Br1148     Br  0.34617032  0.63101170  0.24009988    -0.01860
C1149       C  0.30221971  0.69131957  0.06420299    -0.02990
C1150       C  0.34071596  0.68303130  0.05859498     0.06690
C1151       C  0.35115317  0.64806773  0.04175034    -0.03100
C1152       C  0.32357060  0.62018585  0.03502795    -0.03100
C1153       C  0.28548219  0.62709987  0.04473537     0.06830
C1154       C  0.27478482  0.66386542  0.05652254    -0.03300
Br1155     Br  0.22241822  0.67782586  0.06184440    -0.01850
Br1156     Br  0.28662330  0.74057342  0.08201669    -0.01920
Br1157     Br  0.33866941  0.57173628  0.01501278    -0.01880
Br1158     Br  0.40341487  0.63619020  0.03034949    -0.01860
C1159       C  0.30525531  0.86093144  0.06039169    -0.02990
C1160       C  0.33022564  0.85933951  0.09121916     0.06690
C1161       C  0.32313965  0.88220997  0.12305874    -0.03100
C1162       C  0.29570004  0.91079722  0.12121549    -0.03100
C1163       C  0.27662011  0.91757763  0.08720455     0.06830
C1164       C  0.27750762  0.88959296  0.05892644    -0.03300
Br1165     Br  0.24290152  0.89233808  0.01725692    -0.01850
Br1166     Br  0.31105539  0.82586489  0.01920999    -0.01920
Br1167     Br  0.28577877  0.94283281  0.16414437    -0.01880
Br1168     Br  0.35243709  0.87614683  0.16829730    -0.01860
C1169       C  0.49630197  0.88153119  0.15932994    -0.02990
C1170       C  0.46733074  0.85769392  0.17373057     0.06690
C1171       C  0.46049247  0.85845181  0.21329422    -0.03100
C1172       C  0.48010802  0.88471090  0.23665375    -0.03100
C1173       C  0.51016644  0.90663294  0.22159347     0.06830
C1174       C  0.52104307  0.89975107  0.18370002    -0.03300
Br1175     Br  0.57044674  0.91271100  0.16333788    -0.01850
Br1176     Br  0.50078201  0.89573209  0.10649976    -0.01920
Br1177     Br  0.46770654  0.88825757  0.28961803    -0.01880
Br1178     Br  0.42471375  0.82428019  0.23588588    -0.01860
C1179       C  0.60609748  0.81834077  0.06340854    -0.02990
C1180       C  0.61444148  0.81959321  0.02431941     0.06690
C1181       C  0.59599107  0.79374198  0.00023179    -0.03100
C1182       C  0.56578171  0.77166380  0.01446148    -0.03100
C1183       C  0.55259332  0.77717311  0.05176536     0.06830
C1184       C  0.57469922  0.79805308  0.07691353    -0.03300
Br1185     Br  0.55959675  0.80127392  0.12926353    -0.01850
Br1186     Br  0.63681291  0.84547835  0.09849759    -0.01920
Br1187     Br  0.53971159  0.73652482  0.98224681    -0.01880
Br1188     Br  0.60818205  0.79180433  0.94713746    -0.01860
C1189       C  0.31879225  0.97692603  0.69534368    -0.02990
C1190       C  0.32685266  0.94494753  0.71721958     0.06690
C1191       C  0.30099829  0.91445826  0.71669860    -0.03100
C1192       C  0.26652053  0.91757947  0.69821654    -0.03100
C1193       C  0.26143874  0.94586146  0.67113670     0.06830
C1194       C  0.28714205  0.97674834  0.67083711    -0.03300
Br1195     Br  0.28007407  0.01887955  0.63762401    -0.01850
Br1196     Br  0.35078688  0.02059989  0.69916141    -0.01920
Br1197     Br  0.22628211  0.88273714  0.71099356    -0.01880
Br1198     Br  0.31371962  0.86530986  0.73595873    -0.01860
C1199       C  0.43944696  0.81173891  0.73590025    -0.02990
C1200       C  0.44728912  0.84914774  0.72625613     0.06690
C1201       C  0.46380911  0.85683792  0.69071447    -0.03100
C1202       C  0.46856938  0.82762243  0.66372083    -0.03100
C1203       C  0.45399103  0.79111531  0.67098531     0.06830
C1204       C  0.44035010  0.78330586  0.70830921    -0.03300
Br1205     Br  0.41783429  0.73589089  0.72344273    -0.01850
Br1206     Br  0.42795226  0.79911647  0.78779224    -0.01920
Br1207     Br  0.49475973  0.83850842  0.61700564    -0.01880
Br1208     Br  0.47782652  0.90766068  0.67787693    -0.01860
C1209       C  0.59160826  0.92761250  0.86811747    -0.02990
C1210       C  0.58728875  0.93044306  0.90814033     0.06690
C1211       C  0.55215435  0.94290548  0.92259451    -0.03100
C1212       C  0.52580415  0.95920119  0.89869033    -0.03100
C1213       C  0.52698459  0.95129695  0.85958699     0.06830
C1214       C  0.56044516  0.93570259  0.84415423    -0.03300
Br1215     Br  0.56282504  0.92399451  0.79105259    -0.01850
Br1216     Br  0.63849820  0.91088613  0.84545386    -0.01920
Br1217     Br  0.48734851  0.99146982  0.92078836    -0.01880
Br1218     Br  0.53490159  0.92994410  0.97295374    -0.01860
C1219       C  0.45383275  0.83749454  0.91100103    -0.02990
C1220       C  0.41793613  0.83721047  0.89458651     0.06690
C1221       C  0.39148564  0.80974737  0.90587115    -0.03100
C1222       C  0.39838847  0.78829750  0.93857907    -0.03100
C1223       C  0.43167081  0.79443000  0.95937892     0.06830
C1224       C  0.45996354  0.81818941  0.94461859    -0.03300
Br1225     Br  0.50468522  0.83003891  0.97262932    -0.01850
Br1226     Br  0.49530088  0.86232803  0.88626806    -0.01920
Br1227     Br  0.36107703  0.75339893  0.95711562    -0.01880
Br1228     Br  0.34606796  0.80212052  0.87711971    -0.01860
C1229       C  0.28171630  0.98377921  0.88811979    -0.02990
C1230       C  0.30413944  0.95103241  0.89106211     0.06690
C1231       C  0.30773848  0.93375649  0.92606904    -0.03100
C1232       C  0.29982361  0.95435843  0.95861731    -0.03100
C1233       C  0.27688350  0.98732916  0.95678948     0.06830
C1234       C  0.26576042  0.00053062  0.92100272    -0.03300
Br1235     Br  0.23416557  0.04447735  0.91706338    -0.01850
Br1236     Br  0.27469554  0.00591996  0.83923628    -0.01920
Br1237     Br  0.32924167  0.94012910  0.00226970    -0.01880
Br1238     Br  0.32967298  0.88434491  0.93012322    -0.01860
C1239       C  0.47479391  0.07272431  0.81291114    -0.02990
C1240       C  0.43850346  0.06081598  0.82493844     0.06690
C1241       C  0.41862188  0.08282295  0.85145665    -0.03100
C1242       C  0.43685839  0.11266416  0.87005958    -0.03100
C1243       C  0.47593829  0.11964806  0.86380135     0.06830
C1244       C  0.49359447  0.10217052  0.83228298    -0.03300
Br1245     Br  0.54386074  0.11653848  0.81650082    -0.01850
Br1246     Br  0.50036181  0.04623412  0.77253846    -0.01920
Br1247     Br  0.40788354  0.14317632  0.90482674    -0.01880
Br1248     Br  0.36717467  0.06961763  0.86458528    -0.01860
loop_ 
_geom_bond_atom_site_label_1 
_geom_bond_atom_site_label_2 
_geom_bond_distance 
_geom_bond_site_symmetry_2 
_ccdc_geom_bond_type 
O1           C16   1.263       .  A
O1           Al9   1.920   1_545  S
C2           O12   1.254       .  A
C2            O3   1.271       .  A
C2         C1220   1.475       .  S
O3           Al5   1.946       .  S
O4            C6   1.253       .  A
O4           Al5   1.828       .  S
Al5          O13   1.889       .  S
Al5          O15   1.898   1_565  S
Al5          O14   1.747       .  S
C6           O19   1.278       .  A
C6         C1213   1.491       .  S
O7           C17   1.258       .  A
O7           Al9   1.905       .  S
O8           C21   1.252       .  A
O8          Al18   1.838       .  S
Al9          O22   2.009       .  S
Al9          O19   1.998       .  S
Al9          O14   1.788       .  S
O10          C17   1.263       .  A
O10         Al18   1.922       .  S
O11          C20   1.265       .  A
O11         Al18   1.944       .  S
O12         Al18   1.881       .  S
O13          C20   1.256       .  A
O14         Al18   1.769       .  S
O15          C16   1.259       .  A
C16        C1240   1.483       .  S
C17        C1200   1.486       .  S
C20        C1230   1.470       .  S
C21          O22   1.285       .  A
C21        C1190   1.487       .  S
O23          C38   1.279       .  A
O23         Al31   2.006       .  S
C24          O34   1.275   1_556  A
C24          O25   1.258   1_556  A
C24        C1223   1.469       .  S
O25         Al27   1.867       .  S
O26          C28   1.264       .  A
O26         Al27   1.949       .  S
Al27         O35   1.921       .  S
Al27         O37   1.843       .  S
Al27         O36   1.751       .  S
C28          O41   1.250       .  A
C28        C1160   1.477       .  S
O29          C39   1.274       .  A
O29         Al31   1.960       .  S
O30          C43   1.276       .  A
O30         Al40   1.985       .  S
Al31         O44   1.877       .  S
Al31         O41   1.884       .  S
Al31         O36   1.768       .  S
O32          C39   1.253       .  A
O32         Al40   1.863       .  S
O33          C42   1.265       .  A
O33         Al40   1.921       .  S
O34         Al40   1.973       .  S
O35          C42   1.265       .  A
O36         Al40   1.781       .  S
O37          C38   1.250       .  A
C38        C1170   1.509       .  S
C39        C1150   1.483       .  S
C42        C1183   1.479       .  S
C43          O44   1.255       .  A
C43        C1143   1.498       .  S
O45          C60   1.259   1_554  A
O45         Al53   1.941       .  S
C46          O56   1.257       .  A
C46          O47   1.249       .  A
C46        C1120   1.494       .  S
O47         Al49   1.871       .  S
O48          C50   1.266       .  A
O48         Al49   1.878   1_565  S
Al49         O57   1.890       .  S
Al49         O59   1.817       .  S
Al49         O58   1.761       .  S
C50          O63   1.274       .  A
C50        C1163   1.483       .  S
O51          C61   1.251       .  A
O51         Al53   1.878       .  S
O52          C65   1.260       .  A
O52         Al62   1.865       .  S
Al53         O66   1.942       .  S
Al53         O63   1.954   1_545  S
Al53         O58   1.804       .  S
O54          C61   1.255       .  A
O54         Al62   1.889       .  S
O55          C64   1.274       .  A
O55         Al62   1.961       .  S
O56         Al62   1.945       .  S
O57          C64   1.263       .  A
O58         Al62   1.789       .  S
O59          C60   1.235   1_554  A
C60        C1233   1.484   1_545  S
C61        C1110   1.479       .  S
C64        C1133   1.477       .  S
C65          O66   1.272       .  A
C65        C1100   1.504       .  S
O67          C82   1.267       .  A
O67         Al75   1.958       .  S
C68          O78   1.269       .  A
C68          O69   1.254       .  A
C68        C1123   1.505       .  S
O69         Al71   1.883       .  S
O70          C72   1.261       .  A
O70         Al71   1.896       .  S
Al71         O79   1.880   1_545  S
Al71         O81   1.860       .  S
Al71         O80   1.749       .  S
C72          O85   1.263       .  A
C72        C1083   1.475       .  S
O73          C83   1.265       .  A
O73         Al75   1.928       .  S
O74          C87   1.275   1_565  A
O74         Al84   1.938   1_565  S
Al75         O88   1.891       .  S
Al75         O85   1.918       .  S
Al75         O80   1.769       .  S
O76          C83   1.259       .  A
O76         Al84   1.913       .  S
O77          C86   1.268       .  A
O77         Al84   1.987   1_565  S
O78         Al84   1.946       .  S
O79          C86   1.249       .  A
O80         Al84   1.802       .  S
O81          C82   1.248       .  A
C82        C1093   1.484       .  S
C83        C1070   1.516       .  S
C86        C1173   1.508       .  S
C87          O88   1.267       .  A
C87        C1063   1.477       .  S
O89         C104   1.262   1_556  A
O89         Al97   1.931       .  S
C90         O100   1.248       .  A
C90          O91   1.261       .  A
C90        C1053   1.483       .  S
O91         Al93   1.906       .  S
O92          C94   1.259       .  A
O92         Al93   1.846   1_554  S
Al93        O101   1.864       .  S
Al93        O103   1.907       .  S
Al93        O102   1.758       .  S
C94         O107   1.280       .  A
C94        C1080   1.496       .  S
O95         C105   1.246   1_554  A
O95         Al97   1.852   1_554  S
O96         C109   1.247       .  A
O96        Al106   1.851       .  S
Al97        O110   1.969       .  S
Al97        O107   1.972   1_556  S
Al97        O102   1.788       .  S
O98         C105   1.269       .  A
O98        Al106   1.951       .  S
O99         C108   1.282       .  A
O99        Al106   1.991       .  S
O100       Al106   1.901       .  S
O101        C108   1.263       .  A
O102       Al106   1.767       .  S
O103        C104   1.260   1_556  A
C104       C1130   1.489       .  S
C105       C1040   1.475       .  S
C108       C1243   1.503       .  S
C109        O110   1.275       .  A
C109       C1033   1.482       .  S
O111        C126   1.264   1_556  A
O111       Al119   1.937       .  S
C112        O122   1.275   1_545  A
C112        O113   1.266   1_546  A
C112       C1050   1.484       .  S
O113       Al115   1.904       .  S
O114        C116   1.260       .  A
O114       Al115   1.893   1_556  S
Al115       O123   1.926       .  S
Al115       O125   1.876       .  S
Al115       O124   1.775   1_554  S
C116        O129   1.257       .  A
C116       C1210   1.501       .  S
O117        C127   1.262       .  A
O117       Al119   1.953       .  S
O118        C131   1.281       .  A
O118       Al128   1.933       .  S
Al119       O132   1.900       .  S
Al119       O129   1.909       .  S
Al119       O124   1.796       .  S
O120        C127   1.250       .  A
O120       Al128   1.893   1_556  S
O121        C130   1.255       .  A
O121       Al128   1.931       .  S
O122       Al128   1.932   1_556  S
O123        C130   1.258       .  A
O124       Al128   1.788   1_556  S
O125        C126   1.255       .  A
C126       C1180   1.497       .  S
C127       C1020   1.502       .  S
C130       C1090   1.502       .  S
C131        O132   1.271   1_554  A
C131       C1010   1.488       .  S
O133        C148   1.258       .  A
O133       Al141   1.906       .  S
C134        O144   1.254       .  A
C134        O135   1.266       .  A
C134        C980   1.469       .  S
O135       Al137   1.941   1_556  S
O136        C138   1.255       .  A
O136       Al137   1.860   1_556  S
Al137       O145   1.845       .  S
Al137       O147   1.898       .  S
Al137       O146   1.736   1_554  S
C138        O151   1.273   1_556  A
C138        C970   1.473       .  S
O139        C149   1.257       .  A
O139       Al141   1.875   1_556  S
O140        C153   1.256       .  A
O140       Al150   1.859       .  S
Al141       O154   1.950       .  S
Al141       O151   1.975       .  S
Al141       O146   1.781   1_554  S
O142        C149   1.279       .  A
O142       Al150   1.975       .  S
O143        C152   1.279   1_556  A
O143       Al150   2.029       .  S
O144       Al150   1.881       .  S
O145        C152   1.246       .  A
O146       Al150   1.777       .  S
O147        C148   1.259       .  A
C148       C1003   1.468       .  S
C149        C960   1.493       .  S
C152        C993   1.509       .  S
C153        O154   1.273   1_556  A
C153       C1043   1.483   1_556  S
O155        C170   1.264       .  A
O155       Al163   1.941       .  S
C156        O166   1.263       .  A
C156        O157   1.257       .  A
C156        C983   1.470       .  S
O157       Al159   1.898   1_655  S
O158        C160   1.245       .  A
O158       Al159   1.838       .  S
Al159       O167   1.865       .  S
Al159       O169   1.916       .  S
Al159       O168   1.743       .  S
C160        O173   1.269       .  A
C160        C933   1.499       .  S
O161        C171   1.269       .  A
O161       Al163   1.929       .  S
O162        C175   1.273       .  A
O162       Al172   1.932       .  S
Al163       O176   1.903       .  S
Al163       O173   1.968       .  S
Al163       O168   1.779       .  S
O164        C171   1.261       .  A
O164       Al172   1.902       .  S
O165        C174   1.269   1_655  A
O165       Al172   1.984   1_655  S
O166       Al172   1.927   1_655  S
O167        C174   1.254       .  A
O168       Al172   1.793       .  S
O169        C170   1.258       .  A
C170        C943   1.502       .  S
C171        C920   1.476       .  S
C174        C953   1.496   1_455  S
C175        O176   1.266       .  A
C175        C913   1.483       .  S
O177        C192   1.263       .  A
O177       Al185   1.921       .  S
C178        O188   1.270       .  A
C178        O179   1.272       .  A
C178        C880   1.484       .  S
O179       Al181   1.933       .  S
O180        C182   1.258       .  A
O180       Al181   1.886       .  S
Al181       O189   1.859   1_554  S
Al181       O191   1.902       .  S
Al181       O190   1.756       .  S
C182        O195   1.256       .  A
C182        C890   1.480       .  S
O183        C193   1.265       .  A
O183       Al185   1.924       .  S
O184        C197   1.280       .  A
O184       Al194   1.942       .  S
Al185       O198   1.899       .  S
Al185       O195   1.901       .  S
Al185       O190   1.773       .  S
O186        C193   1.260       .  A
O186       Al194   1.930       .  S
O187        C196   1.261       .  A
O187       Al194   1.977   1_556  S
O188       Al194   1.927       .  S
O189        C196   1.247       .  A
O190       Al194   1.800       .  S
O191        C192   1.259       .  A
C192        C900   1.487       .  S
C193        C873   1.511       .  S
C196        C940   1.505       .  S
C197        O198   1.267       .  A
C197       C1153   1.488       .  S
O199        C214   1.265       .  A
O199       Al207   1.960   1_655  S
C200        O210   1.260       .  A
C200        O201   1.252       .  A
C200        C883   1.492       .  S
O201       Al203   1.893       .  S
O202        C204   1.263       .  A
O202       Al203   1.884       .  S
Al203       O211   1.901   1_455  S
Al203       O213   1.873   1_455  S
Al203       O212   1.767       .  S
C204        O217   1.268       .  A
C204        C930   1.465   1_554  S
O205        C215   1.260       .  A
O205       Al207   1.910       .  S
O206        C219   1.257       .  A
O206       Al216   1.874       .  S
Al207       O220   1.924       .  S
Al207       O217   1.933       .  S
Al207       O212   1.798       .  S
O208        C215   1.259       .  A
O208       Al216   1.902       .  S
O209        C218   1.269       .  A
O209       Al216   1.947       .  S
O210       Al216   1.935       .  S
O211        C218   1.264   1_655  A
O212       Al216   1.786       .  S
O213        C214   1.255       .  A
C214        C990   1.500       .  S
C215       C1103   1.504       .  S
C218        C860   1.489   1_455  S
C219        O220   1.264       .  A
C219        C853   1.502       .  S
O221        C236   1.264       .  A
O221       Al229   1.925       .  S
C222        O232   1.250       .  A
C222        O223   1.271       .  A
C222        C840   1.481       .  S
O223       Al225   1.969       .  S
O224        C226   1.247       .  A
O224       Al225   1.823       .  S
Al225       O233   1.878       .  S
Al225       O235   1.942       .  S
Al225       O234   1.764       .  S
C226        O239   1.275       .  A
C226        C893   1.496   1_655  S
O227        C237   1.252       .  A
O227       Al229   1.887       .  S
O228        C241   1.255       .  A
O228       Al238   1.864       .  S
Al229       O242   1.997       .  S
Al229       O239   1.972       .  S
Al229       O234   1.786       .  S
O230        C237   1.261       .  A
O230       Al238   1.933       .  S
O231        C240   1.271       .  A
O231       Al238   1.961       .  S
O232       Al238   1.866       .  S
O233        C240   1.260       .  A
O234       Al238   1.766       .  S
O235        C236   1.267       .  A
C236        C863   1.497       .  S
C237        C830   1.489       .  S
C240       C1000   1.498       .  S
C241        O242   1.282       .  A
C241        C820   1.489       .  S
O243        C258   1.267       .  A
O243       Al251   1.950       .  S
C244        O254   1.259       .  A
C244        O245   1.253       .  A
C244        C843   1.481       .  S
O245       Al247   1.883       .  S
O246        C248   1.254   1_554  A
O246       Al247   1.881       .  S
Al247       O255   1.890   1_554  S
Al247       O257   1.878   1_554  S
Al247       O256   1.761   1_554  S
C248        O261   1.257       .  A
C248        C973   1.494       .  S
O249        C259   1.276       .  A
O249       Al251   1.949       .  S
O250        C263   1.281       .  A
O250       Al260   1.978   1_556  S
Al251       O264   1.840       .  S
Al251       O261   1.928       .  S
Al251       O256   1.784       .  S
O252        C259   1.254       .  A
O252       Al260   1.866   1_556  S
O253        C262   1.274   1_655  A
O253       Al260   1.975       .  S
O254       Al260   1.938       .  S
O255        C262   1.258   1_656  A
O256       Al260   1.787   1_556  S
O257        C258   1.259       .  A
C258        C950   1.499       .  S
C259       C1013   1.509   1_556  S
C262        C903   1.497       .  S
C263        O264   1.250       .  A
C263        C810   1.507       .  S
O265        C280   1.255       .  A
O265       Al273   1.919   1_455  S
C266        O276   1.258       .  A
C266        O267   1.260       .  A
C266        C783   1.494       .  S
O267       Al269   1.927       .  S
O268        C270   1.259       .  A
O268       Al269   1.855       .  S
Al269       O277   1.890       .  S
Al269       O279   1.889       .  S
Al269       O278   1.773       .  S
C270        O283   1.274       .  A
C270        C770   1.472       .  S
O271        C281   1.251       .  A
O271       Al273   1.874       .  S
O272        C285   1.256       .  A
O272       Al282   1.861       .  S
Al273       O286   1.946       .  S
Al273       O283   1.960       .  S
Al273       O278   1.795       .  S
O274        C281   1.259       .  A
O274       Al282   1.911       .  S
O275        C284   1.272       .  A
O275       Al282   1.953       .  S
O276       Al282   1.918       .  S
O277        C284   1.262       .  A
O278       Al282   1.786       .  S
O279        C280   1.253   1_655  A
C280        C800   1.483       .  S
C281        C760   1.475       .  S
C284        C793   1.480       .  S
C285        O286   1.272       .  A
C285        C833   1.506       .  S
O287        C302   1.256       .  A
O287       Al295   1.905       .  S
C288        O298   1.271       .  A
C288        O289   1.260       .  A
C288        C780   1.503       .  S
O289       Al291   1.888   1_565  S
O290        C292   1.253       .  A
O290       Al291   1.858       .  S
Al291       O299   1.884       .  S
Al291       O301   1.905       .  S
Al291       O300   1.763       .  S
C292        O305   1.261       .  A
C292        C730   1.483       .  S
O293        C303   1.260       .  A
O293       Al295   1.915       .  S
O294        C307   1.271       .  A
O294       Al304   1.929       .  S
Al295       O308   1.887       .  S
Al295       O305   1.931       .  S
Al295       O300   1.798       .  S
O296        C303   1.261       .  A
O296       Al304   1.918       .  S
O297        C306   1.264       .  A
O297       Al304   1.951       .  S
O298       Al304   1.946   1_565  S
O299        C306   1.255       .  A
O300       Al304   1.799       .  S
O301        C302   1.258       .  A
C302        C740   1.479       .  S
C303       C1060   1.481       .  S
C306        C753   1.511       .  S
C307        O308   1.263       .  A
C307        C720   1.479       .  S
O309        C324   1.261       .  A
O309       Al317   1.920   1_565  S
C310        O320   1.254       .  A
C310        O311   1.271       .  A
C310        C700   1.480       .  S
O311       Al313   1.952       .  S
O312        C314   1.253       .  A
O312       Al313   1.835   1_655  S
Al313       O321   1.882   1_545  S
Al313       O323   1.927   1_545  S
Al313       O322   1.759       .  S
C314        O327   1.272       .  A
C314        C733   1.480       .  S
O315        C325   1.257       .  A
O315       Al317   1.896       .  S
O316        C329   1.258       .  A
O316       Al326   1.851       .  S
Al317       O330   1.963       .  S
Al317       O327   1.961   1_455  S
Al317       O322   1.783       .  S
O318        C325   1.264       .  A
O318       Al326   1.930       .  S
O319        C328   1.271       .  A
O319       Al326   1.962       .  S
O320       Al326   1.890       .  S
O321        C328   1.255   1_565  A
O322       Al326   1.779       .  S
O323        C324   1.263       .  A
C324        C790   1.488   1_455  S
C325        C850   1.484       .  S
C328        C713   1.481   1_545  S
C329        O330   1.276       .  A
C329       C1113   1.494       .  S
O331        C346   1.262   1_455  A
O331       Al339   1.935       .  S
C332        O342   1.266       .  A
C332        O333   1.260   1_455  A
C332        C703   1.484       .  S
O333       Al335   1.905       .  S
O334        C336   1.255       .  A
O334       Al335   1.885   1_455  S
Al335       O343   1.893       .  S
Al335       O345   1.909       .  S
Al335       O344   1.767   1_655  S
C336        O349   1.263       .  A
C336        C680   1.492       .  S
O337        C347   1.259       .  A
O337       Al339   1.913       .  S
O338        C351   1.272   1_655  A
O338       Al348   1.926       .  S
Al339       O352   1.899       .  S
Al339       O349   1.918       .  S
Al339       O344   1.772       .  S
O340        C347   1.259       .  A
O340       Al348   1.915   1_455  S
O341        C350   1.267       .  A
O341       Al348   1.944       .  S
O342       Al348   1.924   1_455  S
O343        C350   1.263       .  A
O344       Al348   1.786   1_455  S
O345        C346   1.262       .  A
C346        C690   1.488       .  S
C347        C670   1.491       .  S
C350        C743   1.487       .  S
C351        O352   1.266       .  A
C351        C923   1.472   1_455  S
O353        C368   1.261       .  A
O353       Al361   1.904       .  S
C354        O364   1.257       .  A
C354        O355   1.270       .  A
C354        C663   1.484       .  S
O355       Al357   1.948       .  S
O356        C358   1.251       .  A
O356       Al357   1.862       .  S
Al357       O365   1.857       .  S
Al357       O367   1.945       .  S
Al357       O366   1.758       .  S
C358        O371   1.265       .  A
C358        C683   1.484   1_565  S
O359        C369   1.260       .  A
O359       Al361   1.905       .  S
O360        C373   1.260       .  A
O360       Al370   1.882       .  S
Al361       O374   1.954       .  S
Al361       O371   1.950       .  S
Al361       O366   1.793       .  S
O362        C369   1.270       .  A
O362       Al370   1.924       .  S
O363        C372   1.267       .  A
O363       Al370   1.969       .  S
O364       Al370   1.892       .  S
O365        C372   1.252       .  A
O366       Al370   1.776       .  S
O367        C368   1.272       .  A
C368        C710   1.480       .  S
C369       C1193   1.494       .  S
C372        C803   1.505       .  S
C373        O374   1.271       .  A
C373        C650   1.476       .  S
O375        C390   1.264       .  A
O375       Al383   1.929       .  S
C376        O386   1.264   1_455  A
C376        O377   1.265   1_455  A
C376        C660   1.480       .  S
O377       Al379   1.904       .  S
O378        C380   1.240       .  A
O378       Al379   1.840       .  S
Al379       O387   1.861   1_565  S
Al379       O389   1.885       .  S
Al379       O388   1.782       .  S
C380        O393   1.255       .  A
C380        C773   1.495       .  S
O381        C391   1.264       .  A
O381       Al383   1.919       .  S
O382        C395   1.276       .  A
O382       Al392   1.956       .  S
Al383       O396   1.891       .  S
Al383       O393   1.926       .  S
Al383       O388   1.800       .  S
O384        C391   1.259       .  A
O384       Al392   1.911       .  S
O385        C394   1.262       .  A
O385       Al392   1.957   1_545  S
O386       Al392   1.921       .  S
O387        C394   1.244       .  A
O388       Al392   1.815       .  S
O389        C390   1.262       .  A
C390        C750   1.485       .  S
C391        C813   1.490       .  S
C394        C693   1.492       .  S
C395        O396   1.259       .  A
C395       C1023   1.491       .  S
O397        C412   1.257       .  A
O397       Al405   1.897       .  S
C398        O408   1.260       .  A
C398        O399   1.272       .  A
C398        C620   1.490       .  S
O399       Al401   1.961       .  S
O400        C402   1.251       .  A
O400       Al401   1.832       .  S
Al401       O409   1.876       .  S
Al401       O411   1.929       .  S
Al401       O410   1.750       .  S
C402        O415   1.277       .  A
C402        C610   1.483       .  S
O403        C413   1.260       .  A
O403       Al405   1.889       .  S
O404        C417   1.252       .  A
O404       Al414   1.872       .  S
Al405       O418   1.982       .  S
Al405       O415   1.996       .  S
Al405       O410   1.783       .  S
O406        C413   1.273       .  A
O406       Al414   1.956       .  S
O407        C416   1.271       .  A
O407       Al414   1.972       .  S
O408       Al414   1.909       .  S
O409        C416   1.251       .  A
O410       Al414   1.768       .  S
O411        C412   1.267       .  A
C412        C643   1.471       .  S
C413        C653   1.491       .  S
C416        C630   1.482       .  S
C417        O418   1.276       .  A
C417       C1203   1.507       .  S
O419        C434   1.265       .  A
O419       Al427   1.956       .  S
C420        O430   1.278       .  A
C420        O421   1.244       .  A
C420        C580   1.508       .  S
O421       Al423   1.881       .  S
O422        C424   1.265       .  A
O422       Al423   1.920       .  S
Al423       O431   1.903       .  S
Al423       O433   1.888       .  S
Al423       O432   1.767       .  S
C424        O437   1.258       .  A
C424        C613   1.472       .  S
O425        C435   1.264       .  A
O425       Al427   1.921       .  S
O426        C439   1.282       .  A
O426       Al436   1.983       .  S
Al427       O440   1.854       .  S
Al427       O437   1.884       .  S
Al427       O432   1.769       .  S
O428        C435   1.257       .  A
O428       Al436   1.907       .  S
O429        C438   1.270       .  A
O429       Al436   1.955       .  S
O430       Al436   2.001       .  S
O431        C438   1.265       .  A
O432       Al436   1.786       .  S
O433        C434   1.250       .  A
C434        C593   1.501       .  S
C435       C1140   1.496       .  S
C438        C600   1.493       .  S
C439        O440   1.256       .  A
C439        C870   1.508       .  S
O441        C456   1.252       .  A
O441       Al449   1.913       .  S
C442        O452   1.255       .  A
C442        O443   1.258       .  A
C442        C583   1.502       .  S
O443       Al445   1.898       .  S
O444        C446   1.264       .  A
O444       Al445   1.864       .  S
Al445       O453   1.901       .  S
Al445       O455   1.880       .  S
Al445       O454   1.777       .  S
C446        O459   1.277       .  A
C446        C560   1.499       .  S
O447        C457   1.250       .  A
O447       Al449   1.888       .  S
O448        C461   1.257       .  A
O448       Al458   1.855       .  S
Al449       O462   1.938       .  S
Al449       O459   1.961       .  S
Al449       O454   1.804       .  S
O450        C457   1.255       .  A
O450       Al458   1.878       .  S
O451        C460   1.266       .  A
O451       Al458   1.938       .  S
O452       Al458   1.915       .  S
O453        C460   1.265       .  A
O454       Al458   1.792       .  S
O455        C456   1.248       .  A
C456        C570   1.489       .  S
C457        C823   1.489       .  S
C460        C640   1.489       .  S
C461        O462   1.272       .  A
C461        C763   1.481       .  S
O463        C478   1.276       .  A
O463       Al471   1.952       .  S
C464        O474   1.281       .  A
C464        O465   1.272       .  A
C464        C540   1.499       .  S
O465       Al467   1.883       .  S
O466        C468   1.250       .  A
O466       Al467   1.889       .  S
Al467       O475   1.884       .  S
Al467       O477   1.911       .  S
Al467       O476   1.782       .  S
C468        O481   1.253       .  A
C468        C563   1.499       .  S
O469        C479   1.263       .  A
O469       Al471   1.926       .  S
O470        C483   1.272       .  A
O470       Al480   1.954       .  S
Al471       O484   1.858       .  S
Al471       O481   1.919       .  S
Al471       O476   1.795       .  S
O472        C479   1.249       .  A
O472       Al480   1.872       .  S
O473        C482   1.249       .  A
O473       Al480   1.921       .  S
O474       Al480   1.973       .  S
O475        C482   1.246       .  A
O476       Al480   1.804       .  S
O477        C478   1.274       .  A
C478        C603   1.499       .  S
C479        C723   1.491       .  S
C482        C553   1.488       .  S
C483        O484   1.256       .  A
C483       C1073   1.502       .  S
O485        C500   1.267       .  A
O485       Al493   1.936       .  S
C486        O496   1.281       .  A
C486        O487   1.264       .  A
C486        C623   1.491       .  S
O487       Al489   1.863       .  S
O488        C490   1.252       .  A
O488       Al489   1.884       .  S
Al489       O497   1.863       .  S
Al489       O499   1.920       .  S
Al489       O498   1.775       .  S
C490        O503   1.260       .  A
C490        C533   1.498       .  S
O491        C501   1.261       .  A
O491       Al493   1.925       .  S
O492        C505   1.277       .  A
O492       Al502   1.971       .  S
Al493       O506   1.836       .  S
Al493       O503   1.922       .  S
Al493       O498   1.791       .  S
O494        C501   1.252       .  A
O494       Al502   1.887       .  S
O495        C504   1.255       .  A
O495       Al502   1.937       .  S
O496       Al502   1.975       .  S
O497        C504   1.247       .  A
O498       Al502   1.805       .  S
O499        C500   1.268       .  A
C500        C550   1.489       .  S
C501        C910   1.491       .  S
C504        C590   1.489       .  S
C505        O506   1.251       .  A
C505        C673   1.495       .  S
O507        C522   1.255       .  A
O507       Al515   1.932       .  S
C508        O518   1.248       .  A
C508        O509   1.250       .  A
C508        C543   1.475       .  S
O509       Al511   1.885       .  S
O510        C512   1.262       .  A
O510       Al511   1.838       .  S
Al511       O519   1.839       .  S
Al511       O521   1.842       .  S
Al511       O520   1.762       .  S
C512        O525   1.281       .  A
C512        C530   1.498       .  S
O513        C523   1.250       .  A
O513       Al515   1.879       .  S
O514        C527   1.250       .  A
O514       Al524   1.828       .  S
Al515       O528   1.967       .  S
Al515       O525   1.977       .  S
Al515       O520   1.808       .  S
O516        C523   1.260       .  A
O516       Al524   1.877       .  S
O517        C526   1.277       .  A
O517       Al524   1.978       .  S
O518       Al524   1.914       .  S
O519        C526   1.261       .  A
O520       Al524   1.779       .  S
O521        C522   1.244       .  A
C522        C633   1.491       .  S
C523       C1030   1.469       .  S
C526        C573   1.487       .  S
C527        O528   1.275       .  A
C527        C963   1.500       .  S
C529        C530   1.412       .  A
C529        C534   1.393       .  A
C529       Br536   1.934       .  S
C530        C531   1.414       .  A
C531        C532   1.420       .  A
C531       Br538   1.929       .  S
C532        C533   1.423       .  A
C532       Br537   1.921       .  S
C533        C534   1.421       .  A
C534       Br535   1.946       .  S
C539        C540   1.411       .  A
C539        C544   1.392       .  A
C539       Br546   1.904       .  S
C540        C541   1.415       .  A
C541        C542   1.421       .  A
C541       Br548   1.922       .  S
C542        C543   1.413       .  A
C542       Br547   1.926       .  S
C543        C544   1.398       .  A
C544       Br545   1.932       .  S
C549        C550   1.405       .  A
C549        C554   1.405       .  A
C549       Br556   1.932       .  S
C550        C551   1.408       .  A
C551        C552   1.415       .  A
C551       Br558   1.922       .  S
C552        C553   1.408       .  A
C552       Br557   1.916       .  S
C553        C554   1.408       .  A
C554       Br555   1.907       .  S
C559        C560   1.410       .  A
C559        C564   1.397       .  A
C559       Br566   1.922       .  S
C560        C561   1.414       .  A
C561        C562   1.420       .  A
C561       Br568   1.927       .  S
C562        C563   1.421       .  A
C562       Br567   1.922       .  S
C563        C564   1.415       .  A
C564       Br565   1.936       .  S
C569        C570   1.413       .  A
C569        C574   1.396       .  A
C569       Br576   1.918       .  S
C570        C571   1.420       .  A
C571        C572   1.419       .  A
C571       Br578   1.926       .  S
C572        C573   1.407       .  A
C572       Br577   1.924       .  S
C573        C574   1.404       .  A
C574       Br575   1.936       .  S
C579        C580   1.429       .  A
C579        C584   1.388       .  A
C579       Br586   1.937       .  S
C580        C581   1.417       .  A
C581        C582   1.429       .  A
C581       Br588   1.924       .  S
C582        C583   1.424       .  A
C582       Br587   1.927       .  S
C583        C584   1.403       .  A
C584       Br585   1.944       .  S
C589        C590   1.411       .  A
C589        C594   1.425       .  A
C589       Br596   1.921       .  S
C590        C591   1.397       .  A
C591        C592   1.395       .  A
C591       Br598   1.920       .  S
C592        C593   1.421       .  A
C592       Br597   1.923       .  S
C593        C594   1.420       .  A
C594       Br595   1.924       .  S
C599        C600   1.406       .  A
C599        C604   1.411       .  A
C599       Br606   1.928       .  S
C600        C601   1.417       .  A
C601        C602   1.415       .  A
C601       Br608   1.931       .  S
C602        C603   1.416       .  A
C602       Br607   1.934       .  S
C603        C604   1.412       .  A
C604       Br605   1.917       .  S
C609        C610   1.408       .  A
C609        C614   1.398       .  A
C609       Br616   1.905       .  S
C610        C611   1.411       .  A
C611        C612   1.412       .  A
C611       Br618   1.907       .  S
C612        C613   1.408       .  A
C612       Br617   1.926       .  S
C613        C614   1.405       .  A
C614       Br615   1.933       .  S
C619        C620   1.409       .  A
C619        C624   1.417       .  A
C619       Br626   1.918       .  S
C620        C621   1.403       .  A
C621        C622   1.403       .  A
C621       Br628   1.923       .  S
C622        C623   1.414       .  A
C622       Br627   1.925       .  S
C623        C624   1.413       .  A
C624       Br625   1.920       .  S
C629        C630   1.414       .  A
C629        C634   1.423       .  A
C629       Br636   1.922       .  S
C630        C631   1.409       .  A
C631        C632   1.387       .  A
C631       Br638   1.932       .  S
C632        C633   1.413       .  A
C632       Br637   1.939       .  S
C633        C634   1.415       .  A
C634       Br635   1.925       .  S
C639        C640   1.407       .  A
C639        C644   1.404       .  A
C639       Br646   1.919       .  S
C640        C641   1.417       .  A
C641        C642   1.410       .  A
C641       Br648   1.925       .  S
C642        C643   1.403       .  A
C642       Br647   1.924       .  S
C643        C644   1.403       .  A
C644       Br645   1.923       .  S
C649        C650   1.405       .  A
C649        C654   1.404       .  A
C649       Br656   1.917       .  S
C650        C651   1.403       .  A
C651        C652   1.410       .  A
C651       Br658   1.931       .  S
C652        C653   1.419       .  A
C652       Br657   1.914       .  S
C653        C654   1.413       .  A
C654       Br655   1.926       .  S
C659        C660   1.407       .  A
C659        C664   1.413       .  A
C659       Br666   1.928       .  S
C660        C661   1.404       .  A
C661        C662   1.410       .  A
C661       Br668   1.927   1_565  S
C662        C663   1.412       .  A
C662       Br667   1.926       .  S
C663        C664   1.409       .  A
C664       Br665   1.922       .  S
C669        C670   1.412       .  A
C669        C674   1.402       .  A
C669       Br676   1.939       .  S
C670        C671   1.420       .  A
C671        C672   1.419       .  A
C671       Br678   1.929       .  S
C672        C673   1.411       .  A
C672       Br677   1.928       .  S
C673        C674   1.424       .  A
C674       Br675   1.944       .  S
C679        C680   1.418       .  A
C679        C684   1.399       .  A
C679       Br686   1.943       .  S
C680        C681   1.422       .  A
C681        C682   1.413       .  A
C681       Br688   1.931       .  S
C682        C683   1.406       .  A
C682       Br687   1.926       .  S
C683        C684   1.414       .  A
C684       Br685   1.934   1_545  S
C689        C690   1.397   1_455  A
C689        C694   1.390   1_455  A
C689       Br696   1.920       .  S
C690        C691   1.413       .  A
C691        C692   1.427       .  A
C691       Br698   1.920       .  S
C692        C693   1.417       .  A
C692       Br697   1.922       .  S
C693        C694   1.415       .  A
C694       Br695   1.926   1_655  S
C699        C700   1.403       .  A
C699        C704   1.411       .  A
C699       Br706   1.922       .  S
C700        C701   1.401       .  A
C701        C702   1.400   1_455  A
C701       Br708   1.922   1_455  S
C702        C703   1.414   1_655  A
C702       Br707   1.923       .  S
C703        C704   1.418       .  A
C704       Br705   1.927       .  S
C709        C710   1.402   1_545  A
C709        C714   1.400       .  A
C709       Br716   1.923       .  S
C710        C711   1.400       .  A
C711        C712   1.411       .  A
C711       Br718   1.920       .  S
C712        C713   1.415       .  A
C712       Br717   1.922       .  S
C713        C714   1.409   1_565  A
C714       Br715   1.912       .  S
C719        C720   1.408       .  A
C719        C724   1.414       .  A
C719       Br726   1.931       .  S
C720        C721   1.408       .  A
C721        C722   1.403       .  A
C721       Br728   1.921       .  S
C722        C723   1.406       .  A
C722       Br727   1.914       .  S
C723        C724   1.420       .  A
C724       Br725   1.930       .  S
C729        C730   1.410       .  A
C729        C734   1.382       .  A
C729       Br736   1.940       .  S
C730        C731   1.420       .  A
C731        C732   1.420       .  A
C731       Br738   1.927       .  S
C732        C733   1.412       .  A
C732       Br737   1.927       .  S
C733        C734   1.409       .  A
C734       Br735   1.935   1_545  S
C739        C740   1.404       .  A
C739        C744   1.406       .  A
C739       Br746   1.918       .  S
C740        C741   1.407       .  A
C741        C742   1.412       .  A
C741       Br748   1.927       .  S
C742        C743   1.416       .  A
C742       Br747   1.929       .  S
C743        C744   1.409       .  A
C744       Br745   1.926       .  S
C749        C750   1.397   1_545  A
C749        C754   1.399       .  A
C749       Br756   1.928       .  S
C750        C751   1.404       .  A
C751        C752   1.421       .  A
C751       Br758   1.925       .  S
C752        C753   1.431   1_565  A
C752       Br757   1.930       .  S
C753        C754   1.424       .  A
C754       Br755   1.922       .  S
C759        C760   1.412       .  A
C759        C764   1.409       .  A
C759       Br766   1.931       .  S
C760        C761   1.405       .  A
C761        C762   1.406       .  A
C761       Br768   1.930       .  S
C762        C763   1.416       .  A
C762       Br767   1.929       .  S
C763        C764   1.413       .  A
C764       Br765   1.934       .  S
C769        C770   1.398       .  A
C769        C774   1.398       .  A
C769       Br776   1.924   1_655  S
C770        C771   1.408       .  A
C771        C772   1.416       .  A
C771       Br778   1.924       .  S
C772        C773   1.419       .  A
C772       Br777   1.930       .  S
C773        C774   1.423       .  A
C774       Br775   1.930       .  S
C779        C780   1.417       .  A
C779        C784   1.403       .  A
C779       Br786   1.936       .  S
C780        C781   1.415       .  A
C781        C782   1.419       .  A
C781       Br788   1.920       .  S
C782        C783   1.416       .  A
C782       Br787   1.930       .  S
C783        C784   1.412       .  A
C784       Br785   1.928       .  S
C789        C790   1.407   1_455  A
C789        C794   1.414   1_455  A
C789       Br796   1.920       .  S
C790        C791   1.412       .  A
C791        C792   1.403       .  A
C791       Br798   1.916       .  S
C792        C793   1.404       .  A
C792       Br797   1.930       .  S
C793        C794   1.410       .  A
C794       Br795   1.923   1_655  S
C799        C800   1.412       .  A
C799        C804   1.422       .  A
C799       Br806   1.927       .  S
C800        C801   1.398       .  A
C801        C802   1.398       .  A
C801       Br808   1.917       .  S
C802        C803   1.416       .  A
C802       Br807   1.917       .  S
C803        C804   1.418       .  A
C804       Br805   1.923       .  S
C809        C810   1.429       .  A
C809        C814   1.400       .  A
C809       Br816   1.937       .  S
C810        C811   1.412       .  A
C811        C812   1.425       .  A
C811       Br818   1.925   1_655  S
C812        C813   1.420       .  A
C812       Br817   1.926   1_655  S
C813        C814   1.404       .  A
C814       Br815   1.941       .  S
C819        C820   1.411       .  A
C819        C824   1.422       .  A
C819       Br826   1.927       .  S
C820        C821   1.420       .  A
C821        C822   1.390       .  A
C821       Br828   1.924       .  S
C822        C823   1.408       .  A
C822       Br827   1.947       .  S
C823        C824   1.421       .  A
C824       Br825   1.928       .  S
C829        C830   1.409       .  A
C829        C834   1.408       .  A
C829       Br836   1.935       .  S
C830        C831   1.418       .  A
C831        C832   1.413       .  A
C831       Br838   1.934       .  S
C832        C833   1.417       .  A
C832       Br837   1.935       .  S
C833        C834   1.426       .  A
C834       Br835   1.940       .  S
C839        C840   1.407       .  A
C839        C844   1.408       .  A
C839       Br846   1.921       .  S
C840        C841   1.417       .  A
C841        C842   1.409       .  A
C841       Br848   1.929       .  S
C842        C843   1.399       .  A
C842       Br847   1.922       .  S
C843        C844   1.407       .  A
C844       Br845   1.919       .  S
C849        C850   1.407       .  A
C849        C854   1.408       .  A
C849       Br856   1.929       .  S
C850        C851   1.411   1_455  A
C851        C852   1.413       .  A
C851       Br858   1.930       .  S
C852        C853   1.421   1_655  A
C852       Br857   1.935       .  S
C853        C854   1.422       .  A
C854       Br855   1.938       .  S
C859        C860   1.409       .  A
C859        C864   1.415       .  A
C859       Br866   1.926       .  S
C860        C861   1.404   1_655  A
C861        C862   1.410   1_455  A
C861       Br868   1.929       .  S
C862        C863   1.414       .  A
C862       Br867   1.912   1_655  S
C863        C864   1.407       .  A
C864       Br865   1.914       .  S
C869        C870   1.409       .  A
C869        C874   1.425       .  A
C869       Br876   1.926       .  S
C870        C871   1.418       .  A
C871        C872   1.400       .  A
C871       Br878   1.931       .  S
C872        C873   1.414       .  A
C872       Br877   1.935       .  S
C873        C874   1.432       .  A
C874       Br875   1.931       .  S
C879        C880   1.407       .  A
C879        C884   1.423       .  A
C879       Br886   1.921       .  S
C880        C881   1.396       .  A
C881        C882   1.394       .  A
C881       Br888   1.914       .  S
C882        C883   1.412       .  A
C882       Br887   1.927       .  S
C883        C884   1.420       .  A
C884       Br885   1.920       .  S
C889        C890   1.411       .  A
C889        C894   1.396       .  A
C889       Br896   1.941       .  S
C890        C891   1.416       .  A
C891        C892   1.414       .  A
C891       Br898   1.925       .  S
C892        C893   1.413       .  A
C892       Br897   1.932       .  S
C893        C894   1.425       .  A
C894       Br895   1.948   1_455  S
C899        C900   1.410       .  A
C899        C904   1.419   1_554  A
C899       Br906   1.920   1_554  S
C900        C901   1.401       .  A
C901        C902   1.407       .  A
C901       Br908   1.932       .  S
C902        C903   1.414       .  A
C902       Br907   1.901       .  S
C903        C904   1.411   1_554  A
C904       Br905   1.923       .  S
C909        C910   1.417       .  A
C909        C914   1.413       .  A
C909       Br916   1.930       .  S
C910        C911   1.407       .  A
C911        C912   1.411       .  A
C911       Br918   1.918       .  S
C912        C913   1.410       .  A
C912       Br917   1.928       .  S
C913        C914   1.409       .  A
C914       Br915   1.931       .  S
C919        C920   1.415   1_655  A
C919        C924   1.414       .  A
C919       Br926   1.911       .  S
C920        C921   1.403       .  A
C921        C922   1.396       .  A
C921       Br928   1.923       .  S
C922        C923   1.403   1_455  A
C922       Br927   1.914       .  S
C923        C924   1.403       .  A
C924       Br925   1.925       .  S
C929        C930   1.403       .  A
C929        C934   1.416       .  A
C929       Br936   1.927       .  S
C930        C931   1.391   1_455  A
C931        C932   1.391       .  A
C931       Br938   1.924       .  S
C932        C933   1.432   1_655  A
C932       Br937   1.946       .  S
C933        C934   1.426       .  A
C934       Br935   1.930       .  S
C939        C940   1.403       .  A
C939        C944   1.387       .  A
C939       Br946   1.929       .  S
C940        C941   1.419       .  A
C941        C942   1.431       .  A
C941       Br948   1.922       .  S
C942        C943   1.420       .  A
C942       Br947   1.923       .  S
C943        C944   1.411       .  A
C944       Br945   1.907       .  S
C949        C950   1.425       .  A
C949        C954   1.433       .  A
C949       Br956   1.923       .  S
C950        C951   1.409       .  A
C951        C952   1.374       .  A
C951       Br958   1.940   1_655  S
C952        C953   1.405       .  A
C952       Br957   1.928       .  S
C953        C954   1.418       .  A
C954       Br955   1.923       .  S
C959        C960   1.425       .  A
C959        C964   1.417       .  A
C959       Br966   1.931       .  S
C960        C961   1.406       .  A
C961        C962   1.405       .  A
C961       Br968   1.931       .  S
C962        C963   1.421       .  A
C962       Br967   1.935       .  S
C963        C964   1.410       .  A
C964       Br965   1.928       .  S
C969        C970   1.408   1_554  A
C969        C974   1.396       .  A
C969       Br976   1.927       .  S
C970        C971   1.403       .  A
C971        C972   1.415       .  A
C971       Br978   1.931       .  S
C972        C973   1.427       .  A
C972       Br977   1.932       .  S
C973        C974   1.420   1_556  A
C974       Br975   1.947       .  S
C979        C980   1.405       .  A
C979        C984   1.406       .  A
C979       Br986   1.930       .  S
C980        C981   1.407       .  A
C981        C982   1.408       .  A
C981       Br988   1.928       .  S
C982        C983   1.408       .  A
C982       Br987   1.927       .  S
C983        C984   1.411       .  A
C984       Br985   1.926       .  S
C989        C990   1.401       .  A
C989        C994   1.384       .  A
C989       Br996   1.923       .  S
C990        C991   1.420       .  A
C991        C992   1.436       .  A
C991       Br998   1.921       .  S
C992        C993   1.421       .  A
C992       Br997   1.921   1_554  S
C993        C994   1.419       .  A
C994       Br995   1.938       .  S
C999       C1000   1.415       .  A
C999       C1004   1.413       .  A
C999      Br1006   1.926       .  S
C1000      C1001   1.416       .  A
C1001      C1002   1.402       .  A
C1001     Br1008   1.913       .  S
C1002      C1003   1.399       .  A
C1002     Br1007   1.932       .  S
C1003      C1004   1.409       .  A
C1004     Br1005   1.926       .  S
C1009      C1010   1.412       .  A
C1009      C1014   1.410       .  A
C1009     Br1016   1.930       .  S
C1010      C1011   1.401       .  A
C1011      C1012   1.411       .  A
C1011     Br1018   1.938       .  S
C1012      C1013   1.440       .  A
C1012     Br1017   1.944       .  S
C1013      C1014   1.418       .  A
C1014     Br1015   1.933   1_554  S
C1019      C1020   1.414       .  A
C1019      C1024   1.409       .  A
C1019     Br1026   1.922       .  S
C1020      C1021   1.414       .  A
C1021      C1022   1.423       .  A
C1021     Br1028   1.926       .  S
C1022      C1023   1.414       .  A
C1022     Br1027   1.924       .  S
C1023      C1024   1.408       .  A
C1024     Br1025   1.928       .  S
C1029      C1030   1.394       .  A
C1029      C1034   1.382       .  A
C1029     Br1036   1.943       .  S
C1030      C1031   1.415       .  A
C1031      C1032   1.420       .  A
C1031     Br1038   1.925       .  S
C1032      C1033   1.411       .  A
C1032     Br1037   1.924       .  S
C1033      C1034   1.422       .  A
C1034     Br1035   1.920       .  S
C1039      C1040   1.412       .  A
C1039      C1044   1.402       .  A
C1039     Br1046   1.925       .  S
C1040      C1041   1.403   1_556  A
C1041      C1042   1.409       .  A
C1041     Br1048   1.926       .  S
C1042      C1043   1.418       .  A
C1042     Br1047   1.932       .  S
C1043      C1044   1.411   1_554  A
C1044     Br1045   1.929       .  S
C1049      C1050   1.417       .  A
C1049      C1054   1.424       .  A
C1049     Br1056   1.924       .  S
C1050      C1051   1.414       .  A
C1051      C1052   1.379       .  A
C1051     Br1058   1.918       .  S
C1052      C1053   1.392       .  A
C1052     Br1057   1.927       .  S
C1053      C1054   1.418       .  A
C1054     Br1055   1.920       .  S
C1059      C1060   1.405       .  A
C1059      C1064   1.395       .  A
C1059     Br1066   1.921       .  S
C1060      C1061   1.410   1_545  A
C1061      C1062   1.417       .  A
C1061     Br1068   1.918       .  S
C1062      C1063   1.409   1_565  A
C1062     Br1067   1.920       .  S
C1063      C1064   1.405       .  A
C1064     Br1065   1.923       .  S
C1069      C1070   1.434       .  A
C1069      C1074   1.420       .  A
C1069     Br1076   1.935       .  S
C1070      C1071   1.420       .  A
C1071      C1072   1.405       .  A
C1071     Br1078   1.931       .  S
C1072      C1073   1.414       .  A
C1072     Br1077   1.937       .  S
C1073      C1074   1.409       .  A
C1074     Br1075   1.931       .  S
C1079      C1080   1.413       .  A
C1079      C1084   1.395       .  A
C1079     Br1086   1.935       .  S
C1080      C1081   1.413       .  A
C1081      C1082   1.415       .  A
C1081     Br1088   1.930       .  S
C1082      C1083   1.412       .  A
C1082     Br1087   1.920       .  S
C1083      C1084   1.408       .  A
C1084     Br1085   1.932       .  S
C1089      C1090   1.408       .  A
C1089      C1094   1.413       .  A
C1089     Br1096   1.919       .  S
C1090      C1091   1.418   1_565  A
C1091      C1092   1.416       .  A
C1091     Br1098   1.924       .  S
C1092      C1093   1.407       .  A
C1092     Br1097   1.929       .  S
C1093      C1094   1.410   1_545  A
C1094     Br1095   1.920       .  S
C1099      C1100   1.416       .  A
C1099      C1104   1.405       .  A
C1099     Br1106   1.941       .  S
C1100      C1101   1.415       .  A
C1101      C1102   1.418       .  A
C1101     Br1108   1.933       .  S
C1102      C1103   1.425       .  A
C1102     Br1107   1.935       .  S
C1103      C1104   1.421       .  A
C1104     Br1105   1.939       .  S
C1109      C1110   1.409       .  A
C1109      C1114   1.402       .  A
C1109     Br1116   1.933       .  S
C1110      C1111   1.415       .  A
C1111      C1112   1.411       .  A
C1111     Br1118   1.933       .  S
C1112      C1113   1.413       .  A
C1112     Br1117   1.927   1_545  S
C1113      C1114   1.419       .  A
C1114     Br1115   1.936   1_545  S
C1119      C1120   1.415       .  A
C1119      C1124   1.424       .  A
C1119     Br1126   1.929       .  S
C1120      C1121   1.411       .  A
C1121      C1122   1.390       .  A
C1121     Br1128   1.934   1_545  S
C1122      C1123   1.426       .  A
C1122     Br1127   1.953   1_545  S
C1123      C1124   1.425       .  A
C1124     Br1125   1.930       .  S
C1129      C1130   1.410       .  A
C1129      C1134   1.419       .  A
C1129     Br1136   1.923   1_554  S
C1130      C1131   1.408       .  A
C1131      C1132   1.394       .  A
C1131     Br1138   1.908       .  S
C1132      C1133   1.403       .  A
C1132     Br1137   1.928       .  S
C1133      C1134   1.414       .  A
C1134     Br1135   1.922   1_554  S
C1139      C1140   1.420       .  A
C1139      C1144   1.419       .  A
C1139     Br1146   1.927       .  S
C1140      C1141   1.410       .  A
C1141      C1142   1.408       .  A
C1141     Br1148   1.941       .  S
C1142      C1143   1.422       .  A
C1142     Br1147   1.928       .  S
C1143      C1144   1.409       .  A
C1144     Br1145   1.928       .  S
C1149      C1150   1.404       .  A
C1149      C1154   1.404       .  A
C1149     Br1156   1.935       .  S
C1150      C1151   1.423       .  A
C1151      C1152   1.412       .  A
C1151     Br1158   1.933       .  S
C1152      C1153   1.407       .  A
C1152     Br1157   1.931       .  S
C1153      C1154   1.419       .  A
C1154     Br1155   1.922       .  S
C1159      C1160   1.411       .  A
C1159      C1164   1.414       .  A
C1159     Br1166   1.924       .  S
C1160      C1161   1.408       .  A
C1161      C1162   1.405       .  A
C1161     Br1168   1.927       .  S
C1162      C1163   1.407       .  A
C1162     Br1167   1.925       .  S
C1163      C1164   1.408       .  A
C1164     Br1165   1.927       .  S
C1169      C1170   1.423       .  A
C1169      C1174   1.392       .  A
C1169     Br1176   1.946       .  S
C1170      C1171   1.421       .  A
C1171      C1172   1.428       .  A
C1171     Br1178   1.927       .  S
C1172      C1173   1.421       .  A
C1172     Br1177   1.927       .  S
C1173      C1174   1.414       .  A
C1174     Br1175   1.941       .  S
C1179      C1180   1.414       .  A
C1179      C1184   1.406       .  A
C1179     Br1186   1.915       .  S
C1180      C1181   1.414       .  A
C1181      C1182   1.417       .  A
C1181     Br1188   1.927   1_554  S
C1182      C1183   1.410       .  A
C1182     Br1187   1.928   1_554  S
C1183      C1184   1.400       .  A
C1184     Br1185   1.929       .  S
C1189      C1190   1.408       .  A
C1189      C1194   1.421       .  A
C1189     Br1196   1.927   1_565  S
C1190      C1191   1.419       .  A
C1191      C1192   1.392       .  A
C1191     Br1198   1.932       .  S
C1192      C1193   1.405       .  A
C1192     Br1197   1.940       .  S
C1193      C1194   1.426       .  A
C1194     Br1195   1.926   1_565  S
C1199      C1200   1.402       .  A
C1199      C1204   1.403       .  A
C1199     Br1206   1.935       .  S
C1200      C1201   1.412       .  A
C1201      C1202   1.417       .  A
C1201     Br1208   1.929       .  S
C1202      C1203   1.421       .  A
C1202     Br1207   1.931       .  S
C1203      C1204   1.432       .  A
C1204     Br1205   1.941       .  S
C1209      C1210   1.428       .  A
C1209      C1214   1.425       .  A
C1209     Br1216   1.927       .  S
C1210      C1211   1.409       .  A
C1211      C1212   1.391       .  A
C1211     Br1218   1.939       .  S
C1212      C1213   1.412       .  A
C1212     Br1217   1.935       .  S
C1213      C1214   1.410       .  A
C1214     Br1215   1.926       .  S
C1219      C1220   1.400       .  A
C1219      C1224   1.395       .  A
C1219     Br1226   1.920       .  S
C1220      C1221   1.410       .  A
C1221      C1222   1.413       .  A
C1221     Br1228   1.926       .  S
C1222      C1223   1.409       .  A
C1222     Br1227   1.926       .  S
C1223      C1224   1.409       .  A
C1224     Br1225   1.919       .  S
C1229      C1230   1.411       .  A
C1229      C1234   1.418   1_565  A
C1229     Br1236   1.923   1_565  S
C1230      C1231   1.393       .  A
C1231      C1232   1.389       .  A
C1231     Br1238   1.924       .  S
C1232      C1233   1.425       .  A
C1232     Br1237   1.939   1_556  S
C1233      C1234   1.412   1_565  A
C1234     Br1235   1.924       .  S
C1239      C1240   1.414       .  A
C1239      C1244   1.418       .  A
C1239     Br1246   1.927       .  S
C1240      C1241   1.403       .  A
C1241      C1242   1.406       .  A
C1241     Br1248   1.932       .  S
C1242      C1243   1.419       .  A
C1242     Br1247   1.925       .  S
C1243      C1244   1.415       .  A
C1244     Br1245   1.928       .  S
