geometry optimzed in LAMMPS
_audit_creation_date              2020-11-30 
_audit_creation_method            'lammps2cif' 
_symmetry_space_group_name_H-M    'P1' 
_symmetry_Int_Tables_number       1 
_symmetry_cell_setting            triclinic 
loop_ 
_symmetry_equiv_pos_as_xyz 
  x,y,z 
_cell_length_a                    81.36972179065401 
_cell_length_b                    81.3320151013816 
_cell_length_c                    81.3892313763934 
_cell_angle_alpha                 90.04521329985033 
_cell_angle_beta                  89.93999322988364 
_cell_angle_gamma                 89.99778720232139 
loop_ 
_atom_site_label 
_atom_site_type_symbol 
_atom_site_fract_x 
_atom_site_fract_y 
_atom_site_fract_z 
_atom_site_charge 
N1          N  0.95135090  0.15462271  0.95139195    -0.27100
N2          N  0.95421725  0.13897541  0.94797155    -0.34950
C3          C  0.94333841  0.12964056  0.95622326     0.01240
C4          C  0.93297556  0.13988068  0.96504259     0.07270
C5          C  0.93856770  0.15561727  0.96184368    -0.05830
H6          H  0.94340201  0.11633106  0.95636888     0.07940
H7          H  0.93433303  0.16690990  0.96747333     0.09140
Cu8        Cu  0.97356432  0.13081960  0.93328960     0.44170
Cu9        Cu  0.96559528  0.17398677  0.94280276     0.41990
Cu10       Cu  0.99524483  0.16286020  0.91189216     0.43880
N11         N  0.99387098  0.12650791  0.91829014    -0.34480
N12         N  0.00168224  0.13838075  0.91041280    -0.28740
C13         C  0.01473962  0.13203755  0.90252221    -0.04840
C14         C  0.01503536  0.11531937  0.90533844     0.07380
C15         C  0.00173018  0.11220459  0.91549128     0.01180
H16         H  0.02354903  0.13912739  0.89552200     0.08830
H17         H  0.99831745  0.10052075  0.92085110     0.07910
N18         N  0.99080164  0.18676430  0.91903958    -0.35930
N19         N  0.98082693  0.19083245  0.93116471    -0.28110
C20         C  0.98252872  0.20698348  0.93423615    -0.03350
C21         C  0.99419949  0.21343833  0.92353523     0.05260
C22         C  0.99883112  0.20019878  0.91383714     0.03350
H23         H  0.97599746  0.21348625  0.94383492     0.08460
H24         H  0.00743169  0.20001889  0.90379491     0.07290
N25         N  0.86392241  0.11430657  0.02957052    -0.27100
N26         N  0.87537430  0.10846453  0.03935561    -0.34950
C27         C  0.89016324  0.11144536  0.03263688     0.01240
C28         C  0.88817943  0.11940899  0.01749168     0.07270
C29         C  0.87108965  0.12091486  0.01626989    -0.05830
H30         H  0.90115979  0.10755590  0.03869066     0.07940
H31         H  0.86405241  0.12589479  0.00620893     0.09140
Cu32       Cu  0.87027552  0.09467838  0.06033019     0.44170
Cu33       Cu  0.83905202  0.11180118  0.03407649     0.41990
Cu34       Cu  0.82775985  0.08178233  0.06483115     0.43880
N35         N  0.86215219  0.07813261  0.07812324    -0.34480
N36         N  0.84677029  0.07306328  0.07933479    -0.28740
C37         C  0.84581565  0.06129334  0.09088960    -0.04840
C38         C  0.86129712  0.05896371  0.09759259     0.07380
C39         C  0.87134580  0.06979867  0.08903401     0.01180
H40         H  0.83478860  0.05439126  0.09343108     0.08830
H41         H  0.88451393  0.07114331  0.09028247     0.07910
N42         N  0.81099112  0.09332167  0.04955849    -0.35930
N43         N  0.81512402  0.10475990  0.03880373    -0.28110
C44         C  0.80162656  0.10973468  0.03074198    -0.03350
C45         C  0.78838309  0.10067449  0.03636112     0.05260
C46         C  0.79473079  0.09058827  0.04849524     0.03350
H47         H  0.80160051  0.11927553  0.02153591     0.08460
H48         H  0.78808220  0.08161948  0.05572476     0.07290
N49         N  0.14618487  0.88477305  0.02374086    -0.27100
N50         N  0.13435743  0.89309753  0.01636414    -0.34950
C51         C  0.12019618  0.89062123  0.02455885     0.01240
C52         C  0.12340505  0.88049659  0.03784355     0.07270
C53         C  0.13994267  0.87684589  0.03681097    -0.05830
H54         H  0.10848664  0.89596554  0.02124554     0.07940
H55         H  0.14696165  0.86898338  0.04488930     0.09140
Cu56       Cu  0.13846137  0.90790460  0.99593482     0.44170
Cu57       Cu  0.17054136  0.88575874  0.01679696     0.41990
Cu58       Cu  0.18147615  0.91732082  0.98778408     0.43880
N59         N  0.14653953  0.92222404  0.97635035    -0.34480
N60         N  0.16216706  0.92562022  0.97341451    -0.28740
C61         C  0.16315563  0.93574737  0.96039374    -0.04840
C62         C  0.14742631  0.93874056  0.95473523     0.07380
C63         C  0.13719418  0.93017131  0.96528637     0.01180
H64         H  0.17442595  0.94126368  0.95599110     0.08830
H65         H  0.12389830  0.93027631  0.96533067     0.07910
N66         N  0.19831094  0.90566631  0.00290504    -0.35930
N67         N  0.19435427  0.89332985  0.01265544    -0.28110
C68         C  0.20783513  0.88811773  0.02057613    -0.03350
C69         C  0.22095605  0.89798123  0.01603514     0.05260
C70         C  0.21442740  0.90883246  0.00459834     0.03350
H71         H  0.20783134  0.87787958  0.02895199     0.08460
H72         H  0.22087887  0.91850508  0.99813878     0.07290
N73         N  0.07992956  0.05287725  0.86913355    -0.27100
N74         N  0.08428049  0.05001963  0.88449370    -0.34950
C75         C  0.07585794  0.06014113  0.89448664     0.01240
C76         C  0.06596006  0.07015195  0.88493477     0.07270
C77         C  0.06874570  0.06504303  0.86892282    -0.05830
H78         H  0.07622746  0.05944892  0.90772340     0.07940
H79         H  0.06270452  0.06951182  0.85796893     0.09140
Cu80       Cu  0.10047648  0.03161767  0.89123790     0.44170
Cu81       Cu  0.08835562  0.03899286  0.84949953     0.41990
Cu82       Cu  0.11640209  0.00524031  0.85950331     0.43880
N83         N  0.11454950  0.01095108  0.89583261    -0.34480
N84         N  0.11987266  0.00084483  0.88438233    -0.28740
C85         C  0.12686886  0.98779283  0.89168503    -0.04840
C86         C  0.12611290  0.98963162  0.90880301     0.07380
C87         C  0.11824204  0.00480333  0.91064094     0.01180
H88         H  0.13165781  0.97749910  0.88478912     0.08830
H89         H  0.11487096  0.01132215  0.92156568     0.07910
N90         N  0.10936549  0.01160509  0.83583590    -0.35930
N91         N  0.09865608  0.02327635  0.83227943    -0.28110
C92         C  0.09547586  0.02289892  0.81607396    -0.03350
C93         C  0.10494379  0.01063990  0.80890008     0.05260
C94         C  0.11352720  0.00375437  0.82192851     0.03350
H95         H  0.08630243  0.03049321  0.81032525     0.08460
H96         H  0.12184691  0.99338498  0.82143709     0.07290
N97         N  0.88879694  0.99502535  0.16579483    -0.27100
N98         N  0.89406485  0.98543310  0.15382413    -0.34950
C99         C  0.89100006  0.99275298  0.13933352     0.01240
C100        C  0.88385232  0.00797863  0.14232730     0.07270
C101        C  0.88247795  0.00882331  0.15929389    -0.05830
H102        H  0.89376822  0.98721811  0.12761648     0.07940
H103        H  0.87759421  0.01894419  0.16643424     0.09140
Cu104      Cu  0.90710820  0.96397042  0.15823443     0.44170
Cu105      Cu  0.89148399  0.98910045  0.19032142     0.41990
Cu106      Cu  0.92148825  0.95793321  0.20063773     0.43880
N107        N  0.92389744  0.94616035  0.16540088    -0.34480
N108        N  0.92940990  0.94419194  0.18056841    -0.28740
C109        C  0.94110674  0.93249113  0.18051162    -0.04840
C110        C  0.94321782  0.92705650  0.16453856     0.07380
C111        C  0.93192214  0.93577924  0.15534700     0.01180
H112        H  0.94791760  0.92857300  0.19122056     0.08830
H113        H  0.92971193  0.93478901  0.14229285     0.07910
N114        N  0.91017920  0.97303356  0.21790507    -0.35930
N115        N  0.89841770  0.98345920  0.21405123    -0.28110
C116        C  0.89320438  0.99111766  0.22766942    -0.03350
C117        C  0.90248608  0.98585314  0.24103807     0.05260
C118        C  0.91305652  0.97416345  0.23413157     0.03350
H119        H  0.88345165  0.99995441  0.22723560     0.08460
H120        H  0.92255574  0.96723186  0.24028742     0.07290
N121        N  0.05729515  0.84152089  0.09802363    -0.27100
N122        N  0.05401884  0.85710260  0.10145868    -0.34950
C123        C  0.06440484  0.86668812  0.09283420     0.01240
C124        C  0.07450531  0.85667429  0.08345694     0.07270
C125        C  0.06982862  0.84081782  0.08728970    -0.05830
H126        H  0.06429684  0.87999738  0.09298887     0.07940
H127        H  0.07506895  0.82951638  0.08264951     0.09140
Cu128      Cu  0.03497843  0.86492523  0.11690060     0.44170
Cu129      Cu  0.04417097  0.82144432  0.10652381     0.41990
Cu130      Cu  0.01068500  0.83150756  0.13235279     0.43880
N131        N  0.01359799  0.86820244  0.13080560    -0.34480
N132        N  0.00453045  0.85569061  0.13562668    -0.28740
C133        C  0.99069009  0.86121710  0.14261584    -0.04840
C134        C  0.99098409  0.87827320  0.14291312     0.07380
C135        C  0.00584917  0.88217080  0.13514857     0.01180
H136        H  0.98112319  0.85303288  0.14652741     0.08830
H137        H  0.01065206  0.89429625  0.13257155     0.07910
N138        N  0.01610075  0.80784165  0.12577795    -0.35930
N139        N  0.02815074  0.80392913  0.11565472    -0.28110
C140        C  0.02739177  0.78771527  0.11249117    -0.03350
C141        C  0.01407447  0.78128649  0.12094868     0.05260
C142        C  0.00745511  0.79433678  0.12953080     0.03350
H143        H  0.03567175  0.78116286  0.10439118     0.08460
H144        H  0.99720507  0.79415796  0.13796628     0.07290
N145        N  0.92746825  0.55059015  0.67989767    -0.27100
N146        N  0.92474437  0.54681805  0.66431170    -0.34950
C147        C  0.93357929  0.55703011  0.65474471     0.01240
C148        C  0.94206212  0.56778854  0.66480034     0.07270
C149        C  0.93804575  0.56327449  0.68064256    -0.05830
H150        H  0.93420040  0.55633587  0.64148389     0.07940
H151        H  0.94293520  0.56840978  0.69188856     0.09140
Cu152      Cu  0.90995600  0.52732178  0.65666781     0.44170
Cu153      Cu  0.91799877  0.53760917  0.69963977     0.41990
Cu154      Cu  0.89195978  0.50336123  0.68927362     0.43880
N155        N  0.89479932  0.50704198  0.65264356    -0.34480
N156        N  0.88811698  0.49846395  0.66470938    -0.28740
C157        C  0.87978602  0.48568321  0.65838066    -0.04840
C158        C  0.88105164  0.48631573  0.64146950     0.07380
C159        C  0.89087211  0.49986924  0.63825615     0.01180
H160        H  0.87408876  0.47610473  0.66562787     0.08830
H161        H  0.89533138  0.50383757  0.62637733     0.07910
N162        N  0.89871365  0.50910813  0.71300024    -0.35930
N163        N  0.90833194  0.52160529  0.71690277    -0.28110
C164        C  0.91107215  0.52138065  0.73319563    -0.03350
C165        C  0.90288363  0.50799313  0.73972921     0.05260
C166        C  0.89503960  0.50060975  0.72664830     0.03350
H167        H  0.91853368  0.53024081  0.73972372     0.08460
H168        H  0.88759235  0.48958523  0.72695250     0.07290
N169        N  0.07665239  0.44326224  0.36836842    -0.27100
N170        N  0.07854357  0.44808220  0.38379397    -0.34950
C171        C  0.06972730  0.43808871  0.39360897     0.01240
C172        C  0.06192943  0.42656799  0.38384759     0.07270
C173        C  0.06662675  0.43013512  0.36796524    -0.05830
H174        H  0.06872104  0.43938116  0.40680252     0.07940
H175        H  0.06261376  0.42399438  0.35687375     0.09140
Cu176      Cu  0.09230525  0.46853045  0.39082410     0.44170
Cu177      Cu  0.08645219  0.45526214  0.34820188     0.41990
Cu178      Cu  0.11289760  0.48918836  0.35742338     0.43880
N179        N  0.10727194  0.48910353  0.39390666    -0.34480
N180        N  0.11544666  0.49595043  0.38169465    -0.28740
C181        C  0.12417526  0.50873081  0.38740748    -0.04840
C182        C  0.12105466  0.51052180  0.40407764     0.07380
C183        C  0.11038847  0.49762413  0.40772866     0.01180
H184        H  0.13212447  0.51595238  0.37972008     0.08830
H185        H  0.10502996  0.49480065  0.41956367     0.07910
N186        N  0.10541054  0.48342310  0.33393134    -0.35930
N187        N  0.09571102  0.47089112  0.33042031    -0.28110
C188        C  0.09242179  0.47100601  0.31423138    -0.03350
C189        C  0.10021009  0.48447640  0.30733297     0.05260
C190        C  0.10849073  0.49192246  0.32014311     0.03350
H191        H  0.08502365  0.46187577  0.30804262     0.08460
H192        H  0.11589430  0.50296555  0.31955259     0.07290
N193        N  0.05716823  0.65328972  0.59934535    -0.27100
N194        N  0.05388172  0.63782392  0.60305767    -0.34950
C195        C  0.06401410  0.62792102  0.59458306     0.01240
C196        C  0.07386410  0.63754835  0.58461751     0.07270
C197        C  0.06938512  0.65360550  0.58818312    -0.05830
H198        H  0.06411799  0.61469583  0.59572196     0.07940
H199        H  0.07433903  0.66467603  0.58272037     0.09140
Cu200      Cu  0.03465129  0.63056939  0.61799873     0.44170
Cu201      Cu  0.04438026  0.67297843  0.60942410     0.41990
Cu202      Cu  0.01136782  0.66197982  0.63815871     0.43880
N203        N  0.01395036  0.62573725  0.63193627    -0.34480
N204        N  0.00577480  0.63715408  0.64004352    -0.28740
C205        C  0.99306072  0.63005427  0.64786371    -0.04840
C206        C  0.99309315  0.61327367  0.64445697     0.07380
C207        C  0.00646298  0.61117598  0.63403111     0.01180
H208        H  0.98421405  0.63673151  0.65522426     0.08830
H209        H  0.01028234  0.60016352  0.62775554     0.07910
N210        N  0.01758974  0.68590046  0.63179003    -0.35930
N211        N  0.02944563  0.68991390  0.62139530    -0.28110
C212        C  0.02932976  0.70631331  0.61920541    -0.03350
C213        C  0.01692201  0.71292391  0.62877913     0.05260
C214        C  0.00961284  0.69962275  0.63640437     0.03350
H215        H  0.03709604  0.71279697  0.61058155     0.08460
H216        H  0.99885803  0.69984263  0.64422957     0.07290
N217        N  0.14563697  0.61035964  0.52279723    -0.27100
N218        N  0.13308097  0.60564306  0.51372060    -0.34950
C219        C  0.11913195  0.60989880  0.52151349     0.01240
C220        C  0.12301028  0.61747972  0.53643603     0.07270
C221        C  0.14007968  0.61723425  0.53672109    -0.05830
H222        H  0.10701772  0.60731896  0.51671875     0.07940
H223        H  0.14819870  0.62109343  0.54636443     0.09140
Cu224      Cu  0.13575773  0.59170958  0.49231458     0.44170
Cu225      Cu  0.16991586  0.60714145  0.51640461     0.41990
Cu226      Cu  0.17820761  0.57980240  0.48335323     0.43880
N227        N  0.14263822  0.57554694  0.47356350    -0.34480
N228        N  0.15805454  0.57130230  0.47053238    -0.28740
C229        C  0.15839263  0.56020535  0.45830856    -0.04840
C230        C  0.14245814  0.55720251  0.45347111     0.07380
C231        C  0.13273801  0.56714274  0.46328765     0.01180
H232        H  0.16941456  0.55445320  0.45357360     0.08830
H233        H  0.11946525  0.56788398  0.46325451     0.07910
N234        N  0.19648736  0.59030912  0.49741784    -0.35930
N235        N  0.19338045  0.60101446  0.50919576    -0.28110
C236        C  0.20752967  0.60526324  0.51648630    -0.03350
C237        C  0.22023083  0.59677177  0.50897266     0.05260
C238        C  0.21270137  0.58721684  0.49705271     0.03350
H239        H  0.20841253  0.61330408  0.52705483     0.08460
H240        H  0.21823931  0.57781776  0.48948785     0.07290
N241        N  0.00117127  0.35366476  0.40879907    -0.27100
N242        N  0.99402487  0.36571204  0.41697345    -0.34950
C243        C  0.00247677  0.37965455  0.41432303     0.01240
C244        C  0.01565471  0.37628592  0.40394190     0.07270
C245        C  0.01413528  0.35963382  0.40049974    -0.05830
H246        H  0.99944223  0.39137246  0.41986595     0.07940
H247        H  0.02173015  0.35214587  0.39266986     0.09140
Cu248      Cu  0.97347309  0.36221246  0.43171106     0.44170
Cu249      Cu  0.99469040  0.32928969  0.41146860     0.41990
Cu250      Cu  0.96509980  0.31995867  0.44351071     0.43880
N251        N  0.95434794  0.35524356  0.44711230    -0.34480
N252        N  0.95166633  0.33995285  0.45188984    -0.28740
C253        C  0.93935142  0.33987186  0.46291505    -0.04840
C254        C  0.93405179  0.35589555  0.46531852     0.07380
C255        C  0.94363888  0.36523926  0.45476682     0.01180
H256        H  0.93487253  0.32897545  0.46909000     0.08830
H257        H  0.94302319  0.37831290  0.45267117     0.07910
N258        N  0.98038075  0.30259947  0.43275781    -0.35930
N259        N  0.99085634  0.30602048  0.42081314    -0.28110
C260        C  0.99926440  0.29236440  0.41686770    -0.03350
C261        C  0.99401101  0.27979502  0.42698207     0.05260
C262        C  0.98184181  0.28661726  0.43671555     0.03350
H263        H  0.00843545  0.29169566  0.40727116     0.08460
H264        H  0.97475542  0.28047235  0.44614069     0.07290
N265        N  0.84666574  0.42271891  0.57566330    -0.27100
N266        N  0.86151113  0.41632531  0.57435381    -0.34950
C267        C  0.87150546  0.42362806  0.58524585     0.01240
C268        C  0.86285645  0.43569987  0.59387575     0.07270
C269        C  0.84701403  0.43449102  0.58727567    -0.05830
H270        H  0.88412051  0.42004515  0.58624053     0.07940
H271        H  0.83641667  0.44190293  0.59030338     0.09140
Cu272      Cu  0.86889786  0.39931448  0.55671558     0.44170
Cu273      Cu  0.82643855  0.41520332  0.56173779     0.41990
Cu274      Cu  0.83688108  0.38369977  0.53238291     0.43880
N275        N  0.87327075  0.38543981  0.53568391    -0.34480
N276        N  0.86110649  0.38025594  0.52636115    -0.28740
C277        C  0.86718084  0.37354340  0.51257468    -0.04840
C278        C  0.88419021  0.37396279  0.51333214     0.07380
C279        C  0.88755901  0.38178487  0.52819496     0.01180
H280        H  0.85957459  0.36955455  0.50252545     0.08830
H281        H  0.89952135  0.38504751  0.53297995     0.07910
N282        N  0.81324512  0.39097152  0.53714542    -0.35930
N283        N  0.80919736  0.40327410  0.54692500    -0.28110
C284        C  0.79299238  0.40617716  0.54520731    -0.03350
C285        C  0.78664110  0.39521500  0.53368943     0.05260
C286        C  0.79986933  0.38550582  0.52927801     0.03350
H287        H  0.78638742  0.41584462  0.55154224     0.08460
H288        H  0.80007690  0.37528416  0.52085947     0.07290
N289        N  0.00529656  0.35639197  0.90879411    -0.27100
N290        N  0.01429514  0.36845562  0.91489249    -0.34950
C291        C  0.00652792  0.38282388  0.91224344     0.01240
C292        C  0.99187320  0.37954821  0.90425488     0.07270
C293        C  0.99160535  0.36270578  0.90206874    -0.05830
H294        H  0.01119068  0.39473139  0.91591909     0.07940
H295        H  0.98196032  0.35552851  0.89638363     0.09140
Cu296      Cu  0.03595237  0.36431375  0.92771742     0.44170
Cu297      Cu  0.01126871  0.33187825  0.91149213     0.41990
Cu298      Cu  0.04272042  0.32218600  0.94161467     0.43880
N299        N  0.05444038  0.35734256  0.94383708    -0.34480
N300        N  0.05627307  0.34231693  0.94967561    -0.28740
C301        C  0.06796314  0.34256924  0.96133469    -0.04840
C302        C  0.07390674  0.35853952  0.96301720     0.07380
C303        C  0.06514959  0.36741755  0.95134439     0.01180
H304        H  0.07157915  0.33190500  0.96839478     0.08830
H305        H  0.06612582  0.38025280  0.94835326     0.07910
N306        N  0.02765992  0.30470790  0.93060821    -0.35930
N307        N  0.01655737  0.30834285  0.91932805    -0.28110
C308        C  0.00849984  0.29460854  0.91499280    -0.03350
C309        C  0.01458047  0.28172960  0.92419383     0.05260
C310        C  0.02690893  0.28848106  0.93377050     0.03350
H311        H  0.99887025  0.29413598  0.90587109     0.08460
H312        H  0.03445333  0.28215014  0.94268350     0.07290
N313        N  0.92563619  0.44254060  0.86624084    -0.27100
N314        N  0.92328331  0.44603251  0.88188364    -0.34950
C315        C  0.93303032  0.43619980  0.89090898     0.01240
C316        C  0.94216141  0.42580841  0.88056395     0.07270
C317        C  0.93680937  0.43049777  0.86494707    -0.05830
H318        H  0.93353397  0.43701740  0.90413411     0.07940
H319        H  0.94052931  0.42616003  0.85310613     0.09140
Cu320      Cu  0.90780924  0.46483074  0.89027705     0.44170
Cu321      Cu  0.91515595  0.45479095  0.84651796     0.41990
Cu322      Cu  0.89582706  0.49194859  0.85744670     0.43880
N323        N  0.89413275  0.48634056  0.89381344    -0.34480
N324        N  0.89070558  0.49646208  0.88163994    -0.28740
C325        C  0.88341371  0.51000683  0.88752776    -0.04840
C326        C  0.88159499  0.50839409  0.90434735     0.07380
C327        C  0.88869816  0.49317179  0.90788180     0.01180
H328        H  0.88049344  0.52043669  0.87996841     0.08830
H329        H  0.89026151  0.48767528  0.91987290     0.07910
N330        N  0.89909393  0.48501388  0.83350607    -0.35930
N331        N  0.90598282  0.47099430  0.82915340    -0.28110
C332        C  0.90683054  0.47039685  0.81265245    -0.03350
C333        C  0.89987705  0.48467438  0.80645178     0.05260
C334        C  0.89538589  0.49374677  0.82006154     0.03350
H335        H  0.91259991  0.46061625  0.80570272     0.08460
H336        H  0.89073311  0.50619544  0.82031938     0.07290
N337        N  0.00201050  0.63838610  0.13544241    -0.27100
N338        N  0.99399737  0.62665650  0.12760409    -0.34950
C339        C  0.00147514  0.61220227  0.13037347     0.01240
C340        C  0.01514620  0.61506329  0.14005771     0.07270
C341        C  0.01495831  0.63176922  0.14325241    -0.05830
H342        H  0.99708383  0.60051750  0.12581181     0.07940
H343        H  0.02376288  0.63864728  0.15046528     0.09140
Cu344      Cu  0.97407467  0.63120158  0.11257204     0.44170
Cu345      Cu  0.99538241  0.66281710  0.13408450     0.41990
Cu346      Cu  0.96356753  0.67382230  0.10448138     0.43880
N347        N  0.95492508  0.63848836  0.09760488    -0.34480
N348        N  0.95051660  0.65391197  0.09518523    -0.28740
C349        C  0.93744515  0.65413721  0.08509199    -0.04840
C350        C  0.93345575  0.63805378  0.08078011     0.07380
C351        C  0.94510882  0.62857092  0.08882485     0.01180
H352        H  0.93149432  0.66527339  0.08093282     0.08830
H353        H  0.94697541  0.61549345  0.08801802     0.07910
N354        N  0.97950173  0.69055363  0.11539601    -0.35930
N355        N  0.99014866  0.68654422  0.12694429    -0.28110
C356        C  0.99851035  0.69997601  0.13156541    -0.03350
C357        C  0.99344455  0.71313813  0.12204032     0.05260
C358        C  0.98115047  0.70666078  0.11208571     0.03350
H359        H  0.00765660  0.69981646  0.14107963     0.08460
H360        H  0.97416698  0.71309409  0.10279882     0.07290
N361        N  0.86204881  0.61401409  0.01919517    -0.27100
N362        N  0.87392077  0.60713587  0.01048350    -0.34950
C363        C  0.88842009  0.61024799  0.01777687     0.01240
C364        C  0.88543827  0.61962437  0.03162520     0.07270
C365        C  0.86862402  0.62167890  0.03225820    -0.05830
H366        H  0.90016904  0.60560673  0.01360874     0.07940
H367        H  0.86164124  0.62780234  0.04179012     0.09140
Cu368      Cu  0.86947166  0.59260971  0.99004395     0.44170
Cu369      Cu  0.83741935  0.61111385  0.01393752     0.41990
Cu370      Cu  0.82680186  0.58089260  0.98302621     0.43880
N371        N  0.86190934  0.57636806  0.97194717    -0.34480
N372        N  0.84649413  0.57179108  0.96961343    -0.28740
C373        C  0.84608433  0.56017414  0.95785276    -0.04840
C374        C  0.86201377  0.55716374  0.95269190     0.07380
C375        C  0.87167887  0.56788659  0.96167217     0.01180
H376        H  0.83505894  0.55399322  0.95372633     0.08830
H377        H  0.88482738  0.56947934  0.96090849     0.07910
N378        N  0.80980008  0.59200831  0.99845025    -0.35930
N379        N  0.81370917  0.60342991  0.00931637    -0.28110
C380        C  0.80017003  0.60791815  0.01762151    -0.03350
C381        C  0.78712140  0.59858037  0.01202886     0.05260
C382        C  0.79363250  0.58882217  0.99967156     0.03350
H383        H  0.79999358  0.61733049  0.02697901     0.08460
H384        H  0.78715992  0.57975883  0.99239242     0.07290
N385        N  0.15971361  0.42424365  0.07552078    -0.27100
N386        N  0.14442516  0.41893030  0.07415766    -0.34950
C387        C  0.13512160  0.42672203  0.08539214     0.01240
C388        C  0.14497501  0.43750646  0.09426344     0.07270
C389        C  0.16046856  0.43567498  0.08742350    -0.05830
H390        H  0.12200409  0.42498758  0.08670014     0.07940
H391        H  0.17141243  0.44259727  0.09018286     0.09140
Cu392      Cu  0.13645119  0.40264273  0.05599743     0.44170
Cu393      Cu  0.17913653  0.41613012  0.06126232     0.41990
Cu394      Cu  0.16919679  0.38430737  0.03266165     0.43880
N395        N  0.13256839  0.38803334  0.03526099    -0.34480
N396        N  0.14477893  0.38153279  0.02676036    -0.28740
C397        C  0.13881745  0.37429269  0.01319524    -0.04840
C398        C  0.12189805  0.37587512  0.01322052     0.07380
C399        C  0.11839323  0.38485985  0.02733909     0.01180
H400        H  0.14646737  0.36932805  0.00356255     0.08830
H401        H  0.10646024  0.38926607  0.03123214     0.07910
N402        N  0.19282755  0.39215097  0.03691192    -0.35930
N403        N  0.19648414  0.40448764  0.04678798    -0.28110
C404        C  0.21257212  0.40788697  0.04533245    -0.03350
C405        C  0.21931337  0.39725384  0.03383810     0.05260
C406        C  0.20645881  0.38720739  0.02905531     0.03350
H407        H  0.21881483  0.41768598  0.05181979     0.08460
H408        H  0.20676762  0.37710491  0.02046694     0.07290
N409        N  0.07646659  0.54951157  0.18086502    -0.27100
N410        N  0.08151320  0.54802147  0.16554966    -0.34950
C411        C  0.07330495  0.55890780  0.15625379     0.01240
C412        C  0.06219673  0.56766236  0.16606160     0.07270
C413        C  0.06468906  0.56102455  0.18164215    -0.05830
H414        H  0.07520857  0.56002044  0.14316518     0.07940
H415        H  0.05834757  0.56361529  0.19289629     0.09140
Cu416      Cu  0.09752252  0.52965650  0.15765846     0.44170
Cu417      Cu  0.08531072  0.53578505  0.20029455     0.41990
Cu418      Cu  0.10902416  0.50046638  0.18928090     0.43880
N419        N  0.10979811  0.50766195  0.15302513    -0.34480
N420        N  0.11350826  0.49689500  0.16459719    -0.28740
C421        C  0.12025125  0.48352030  0.15764071    -0.04840
C422        C  0.12067238  0.48583278  0.14083193     0.07380
C423        C  0.11418902  0.50140462  0.13835045     0.01180
H424        H  0.12423128  0.47273301  0.16431286     0.08830
H425        H  0.11282561  0.50783060  0.12683223     0.07910
N426        N  0.10413761  0.50697212  0.21327451    -0.35930
N427        N  0.09556890  0.52012394  0.21742581    -0.28110
C428        C  0.09417804  0.52067380  0.23387421    -0.03350
C429        C  0.10246087  0.50730934  0.24033905     0.05260
C430        C  0.10838615  0.49875033  0.22691562     0.03350
H431        H  0.08722564  0.52981890  0.24060098     0.08460
H432        H  0.11457720  0.48698091  0.22694416     0.07290
N433        N  0.38796682  0.50133912  0.88171448    -0.27100
N434        N  0.39494690  0.50951789  0.89388500    -0.34950
C435        C  0.39167486  0.50167647  0.90808264     0.01240
C436        C  0.38239810  0.48783685  0.90454639     0.07270
C437        C  0.38007303  0.48816580  0.88775805    -0.05830
H438        H  0.39608040  0.50549851  0.92002881     0.07940
H439        H  0.37322640  0.47947043  0.88039696     0.09140
Cu440      Cu  0.40932329  0.53036844  0.89010719     0.44170
Cu441      Cu  0.39059104  0.50743417  0.85730962     0.41990
Cu442      Cu  0.41600327  0.54195698  0.84701531     0.43880
N443        N  0.42403078  0.54989745  0.88247345    -0.34480
N444        N  0.42635836  0.55406759  0.86691831    -0.28740
C445        C  0.43722107  0.56651385  0.86622026    -0.04840
C446        C  0.44199234  0.57029146  0.88204480     0.07380
C447        C  0.43337116  0.55962361  0.89206134     0.01180
H448        H  0.44172332  0.57202395  0.85499190     0.08830
H449        H  0.43424676  0.55862830  0.90528363     0.07910
N450        N  0.40585949  0.52637088  0.82958088    -0.35930
N451        N  0.39656984  0.51365766  0.83353436    -0.28110
C452        C  0.39305677  0.50502090  0.81993139    -0.03350
C453        C  0.40021392  0.51281950  0.80666995     0.05260
C454        C  0.40844877  0.52619387  0.81325346     0.03350
H455        H  0.38670253  0.49334194  0.81993033     0.08460
H456        H  0.41627979  0.53475115  0.80674501     0.07290
N457        N  0.34568506  0.42530334  0.96984665    -0.27100
N458        N  0.36139409  0.42286495  0.97323598    -0.34950
C459        C  0.37053465  0.43202436  0.96292231     0.01240
C460        C  0.36006434  0.44074384  0.95273274     0.07270
C461        C  0.34442129  0.43594909  0.95729409    -0.05830
H462        H  0.38381305  0.43266434  0.96312547     0.07940
H463        H  0.33291504  0.43984537  0.95196353     0.09140
Cu464      Cu  0.36968699  0.40778535  0.99222104     0.44170
Cu465      Cu  0.32638566  0.41530943  0.98302805     0.41990
Cu466      Cu  0.33760835  0.38662974  0.01448573     0.43880
N467        N  0.37402344  0.39250134  0.01232529    -0.34480
N468        N  0.36216197  0.38473022  0.02027721    -0.28740
C469        C  0.36856150  0.37670574  0.03319442    -0.04840
C470        C  0.38528034  0.37938020  0.03329038     0.07380
C471        C  0.38837892  0.38951256  0.01998748     0.01180
H472        H  0.36149191  0.36983307  0.04211804     0.08830
H473        H  0.40009616  0.39471938  0.01645348     0.07910
N474        N  0.31375387  0.39376818  0.01008743    -0.35930
N475        N  0.30959208  0.40476616  0.99892108    -0.28110
C476        C  0.29343116  0.40790355  0.00027990    -0.03350
C477        C  0.28721939  0.39852953  0.01304983     0.05260
C478        C  0.30039298  0.38946795  0.01874914     0.03350
H479        H  0.28676014  0.41659474  0.99275910     0.08460
H480        H  0.30038904  0.38030864  0.02833961     0.07290
N481        N  0.50606473  0.63973477  0.90719101    -0.27100
N482        N  0.51236434  0.62776209  0.91616292    -0.34950
C483        C  0.50342636  0.61405068  0.91368204     0.01240
C484        C  0.49079936  0.61764149  0.90278320     0.07270
C485        C  0.49314056  0.63398468  0.89870111    -0.05830
H486        H  0.50567813  0.60240426  0.91969067     0.07940
H487        H  0.48609074  0.64132644  0.89024465     0.09140
Cu488      Cu  0.53241108  0.63105461  0.93181654     0.44170
Cu489      Cu  0.51326892  0.66401229  0.90863500     0.41990
Cu490      Cu  0.54357300  0.67396237  0.93874404     0.43880
N491        N  0.55214102  0.63859619  0.94636774    -0.34480
N492        N  0.55624125  0.65418931  0.94856132    -0.28740
C493        C  0.56910454  0.65502942  0.95886708    -0.04840
C494        C  0.57316389  0.63925670  0.96365471     0.07380
C495        C  0.56232007  0.62911384  0.95533395     0.01180
H496        H  0.57492715  0.66635626  0.96269604     0.08830
H497        H  0.56156394  0.61585118  0.95614773     0.07910
N498        N  0.52805083  0.69131342  0.92846520    -0.35930
N499        N  0.51723215  0.68764536  0.91695574    -0.28110
C500        C  0.50859122  0.70118118  0.91311875    -0.03350
C501        C  0.51399426  0.71395745  0.92295356     0.05260
C502        C  0.52653754  0.70731648  0.93234138     0.03350
H503        H  0.49922868  0.70159956  0.90374046     0.08460
H504        H  0.53382107  0.71359945  0.94152067     0.07290
N505        N  0.50101926  0.35738329  0.13749507    -0.27100
N506        N  0.49258739  0.36962041  0.13091351    -0.34950
C507        C  0.49986655  0.38393193  0.13491478     0.01240
C508        C  0.51346642  0.38050502  0.14449491     0.07270
C509        C  0.51394892  0.36357124  0.14572564    -0.05830
H510        H  0.49594075  0.39588624  0.13061143     0.07940
H511        H  0.52325860  0.35626935  0.15177343     0.09140
Cu512      Cu  0.47239900  0.36622013  0.11564607     0.44170
Cu513      Cu  0.49531513  0.33277425  0.13404010     0.41990
Cu514      Cu  0.46139094  0.32404422  0.10669870     0.43880
N515        N  0.45289301  0.35953475  0.10057916    -0.34480
N516        N  0.44862590  0.34412791  0.09771074    -0.28740
C517        C  0.43581991  0.34393760  0.08730258    -0.04840
C518        C  0.43174170  0.36000704  0.08337253     0.07380
C519        C  0.44303236  0.36954100  0.09188307     0.01180
H520        H  0.43016967  0.33285882  0.08256187     0.08830
H521        H  0.44468029  0.38268790  0.09119020     0.07910
N522        N  0.47666948  0.30613871  0.11633563    -0.35930
N523        N  0.48868301  0.30925981  0.12677441    -0.28110
C524        C  0.49646488  0.29513645  0.13031764    -0.03350
C525        C  0.48905889  0.28243867  0.12166106     0.05260
C526        C  0.47666698  0.29000409  0.11274776     0.03350
H527        H  0.50710412  0.29426112  0.13822568     0.08460
H528        H  0.46878343  0.28455747  0.10361216     0.07290
N529        N  0.65934666  0.57114011  0.07471036    -0.27100
N530        N  0.64384359  0.57460220  0.07128442    -0.34950
C531        C  0.63404236  0.56641420  0.08177334     0.01240
C532        C  0.64382668  0.55758405  0.09250779     0.07270
C533        C  0.65979064  0.56071700  0.08752102    -0.05830
H534        H  0.62079143  0.56625564  0.08099071     0.07940
H535        H  0.67090376  0.55549348  0.09260186     0.09140
Cu536      Cu  0.63642499  0.58959055  0.05203157     0.44170
Cu537      Cu  0.67922620  0.57992894  0.06133780     0.41990
Cu538      Cu  0.66887556  0.61106468  0.03139112     0.43880
N539        N  0.63257162  0.60470464  0.03185503    -0.34480
N540        N  0.64456397  0.61276591  0.02443960    -0.28740
C541        C  0.63848318  0.62072096  0.01131475    -0.04840
C542        C  0.62186999  0.61736863  0.01033211     0.07380
C543        C  0.61847283  0.60737806  0.02366543     0.01180
H544        H  0.64568518  0.62827528  0.00308657     0.08830
H545        H  0.60670414  0.60209793  0.02691039     0.07910
N546        N  0.69252383  0.60315362  0.03585467    -0.35930
N547        N  0.69634262  0.59119399  0.04613341    -0.28110
C548        C  0.71245401  0.58781585  0.04458888    -0.03350
C549        C  0.71901791  0.59804960  0.03263820     0.05260
C550        C  0.70605249  0.60783813  0.02766440     0.03350
H551        H  0.71885869  0.57837717  0.05141111     0.08460
H552        H  0.70625678  0.61771611  0.01884131     0.07290
N553        N  0.57844398  0.44394913  0.17942109    -0.27100
N554        N  0.58017791  0.44858791  0.16393313    -0.34950
C555        C  0.57113909  0.43870106  0.15427555     0.01240
C556        C  0.56358824  0.42697799  0.16400311     0.07270
C557        C  0.56831393  0.43085461  0.17991699    -0.05830
H558        H  0.56950571  0.44061752  0.14125864     0.07940
H559        H  0.56430126  0.42485788  0.19108138     0.09140
Cu560      Cu  0.59409724  0.46843166  0.15597363     0.44170
Cu561      Cu  0.58855765  0.45654576  0.19939236     0.41990
Cu562      Cu  0.61043759  0.49344586  0.18747177     0.43880
N563        N  0.60903622  0.48852804  0.15115708    -0.34480
N564        N  0.61513052  0.49773903  0.16303390    -0.28740
C565        C  0.62372888  0.51018538  0.15644950    -0.04840
C566        C  0.62319917  0.50865023  0.13956144     0.07380
C567        C  0.61359506  0.49489794  0.13659522     0.01180
H568        H  0.62948567  0.51994416  0.16342700     0.08830
H569        H  0.60953007  0.49033841  0.12479073     0.07910
N570        N  0.60537535  0.48725555  0.21142379    -0.35930
N571        N  0.59802247  0.47357092  0.21613117    -0.28110
C572        C  0.59707826  0.47357760  0.23266405    -0.03350
C573        C  0.60426832  0.48793954  0.23857295     0.05260
C574        C  0.60904551  0.49638140  0.22463376     0.03350
H575        H  0.59136076  0.46396359  0.23985733     0.08460
H576        H  0.61425108  0.50854554  0.22388596     0.07290
N577        N  0.36468524  0.88255743  0.02767318    -0.27100
N578        N  0.37619922  0.89062616  0.03578354    -0.34950
C579        C  0.39071517  0.88829054  0.02820921     0.01240
C580        C  0.38836707  0.87788697  0.01487355     0.07270
C581        C  0.37162010  0.87468358  0.01489369    -0.05830
H582        H  0.40186260  0.89449154  0.03176635     0.07940
H583        H  0.36486710  0.86750310  0.00596613     0.09140
Cu584      Cu  0.37155924  0.90510702  0.05637115     0.44170
Cu585      Cu  0.33982151  0.88452936  0.03289756     0.41990
Cu586      Cu  0.32909341  0.91530783  0.06333836     0.43880
N587        N  0.36351839  0.91989882  0.07564110    -0.34480
N588        N  0.34799219  0.92411513  0.07772465    -0.28740
C589        C  0.34687726  0.93501274  0.09009107    -0.04840
C590        C  0.36244943  0.93758499  0.09647252     0.07380
C591        C  0.37268038  0.92781590  0.08686867     0.01180
H592        H  0.33565082  0.94125270  0.09332984     0.08830
H593        H  0.38593117  0.92701083  0.08758165     0.07910
N594        N  0.31221361  0.90387920  0.04828730    -0.35930
N595        N  0.31600813  0.89237859  0.03743971    -0.28110
C596        C  0.30230851  0.88789484  0.02937997    -0.03350
C597        C  0.28937636  0.89721261  0.03530714     0.05260
C598        C  0.29603828  0.90702792  0.04743135     0.03350
H599        H  0.30187695  0.87859673  0.01988122     0.08460
H600        H  0.28966951  0.91609436  0.05481254     0.07290
N601        N  0.45169689  0.84211778  0.95021727    -0.27100
N602        N  0.45448094  0.85768379  0.94636711    -0.34950
C603        C  0.44369605  0.86723474  0.95453824     0.01240
C604        C  0.43362304  0.85719572  0.96385011     0.07270
C605        C  0.43914252  0.84139319  0.96096332    -0.05830
H606        H  0.44368204  0.88054140  0.95431294     0.07940
H607        H  0.43472506  0.83023123  0.96669242     0.09140
Cu608      Cu  0.47384098  0.86545863  0.93149745     0.44170
Cu609      Cu  0.46555224  0.82245236  0.94157765     0.41990
Cu610      Cu  0.49678461  0.83298462  0.91199100     0.43880
N611        N  0.49514554  0.86945965  0.91785224    -0.34480
N612        N  0.50344909  0.85746191  0.91068961    -0.28740
C613        C  0.51702037  0.86369899  0.90362725    -0.04840
C614        C  0.51742619  0.88042306  0.90661661     0.07380
C615        C  0.50321998  0.88371013  0.91544874     0.01180
H616        H  0.52612647  0.85652385  0.89709061     0.08830
H617        H  0.49894633  0.89556108  0.91971232     0.07910
N618        N  0.49150831  0.80913059  0.91888012    -0.35930
N619        N  0.48075603  0.80522643  0.93039050    -0.28110
C620        C  0.48185614  0.78899708  0.93338959    -0.03350
C621        C  0.49399533  0.78238019  0.92335784     0.05260
C622        C  0.49952377  0.79552944  0.91406125     0.03350
H623        H  0.47465267  0.78255377  0.94252267     0.08460
H624        H  0.50873124  0.79546012  0.90454591     0.07290
N625        N  0.64467013  0.11335373  0.02153626    -0.27100
N626        N  0.63335234  0.10487122  0.01352682    -0.34950
C627        C  0.61861303  0.10781401  0.02043930     0.01240
C628        C  0.62083541  0.11867973  0.03333294     0.07270
C629        C  0.63749396  0.12177941  0.03380164    -0.05830
H630        H  0.60724111  0.10201390  0.01672763     0.07940
H631        H  0.64397693  0.12934054  0.04261573     0.09140
Cu632      Cu  0.63862972  0.08888796  0.99426859     0.44170
Cu633      Cu  0.66950994  0.11224847  0.01651665     0.41990
Cu634      Cu  0.68192577  0.08465843  0.98441410     0.43880
N635        N  0.64759406  0.07418916  0.97535255    -0.34480
N636        N  0.66328053  0.07340119  0.97129238    -0.28740
C637        C  0.66507947  0.06316758  0.95845603    -0.04840
C638        C  0.64983434  0.05662168  0.95443776     0.07380
C639        C  0.63905118  0.06415904  0.96538488     0.01180
H640        H  0.67675750  0.06088151  0.95271151     0.08830
H641        H  0.62592505  0.06224069  0.96626908     0.07910
N642        N  0.69818990  0.09521207  0.00087110    -0.35930
N643        N  0.69367390  0.10591264  0.01220083    -0.28110
C644        C  0.70684945  0.11026091  0.02112589    -0.03350
C645        C  0.72032356  0.10147351  0.01550074     0.05260
C646        C  0.71434119  0.09222756  0.00247538     0.03350
H647        H  0.70642514  0.11917112  0.03092769     0.08460
H648        H  0.72116816  0.08363485  0.99493966     0.07290
N649        N  0.58270001  0.94405780  0.86811640    -0.27100
N650        N  0.58618537  0.94652895  0.88372337    -0.34950
C651        C  0.57720298  0.93605390  0.89281680     0.01240
C652        C  0.56721991  0.92645973  0.88254520     0.07270
C653        C  0.57129076  0.93222196  0.86690084    -0.05830
H654        H  0.57782997  0.93584343  0.90606110     0.07940
H655        H  0.56638059  0.92881704  0.85519466     0.09140
Cu656      Cu  0.60165634  0.96526914  0.89194071     0.44170
Cu657      Cu  0.59280223  0.95708402  0.84871542     0.41990
Cu658      Cu  0.61928800  0.99028315  0.85933761     0.43880
N659        N  0.61555085  0.98644789  0.89601263    -0.34480
N660        N  0.62190040  0.99541112  0.88401975    -0.28740
C661        C  0.62933284  0.00868440  0.89044108    -0.04840
C662        C  0.62751613  0.00812531  0.90725993     0.07380
C663        C  0.61881117  0.99386393  0.91045529     0.01180
H664        H  0.63522011  0.01826559  0.88334290     0.08830
H665        H  0.61476727  0.98945924  0.92232680     0.07910
N666        N  0.61364713  0.98435182  0.83535942    -0.35930
N667        N  0.60373401  0.97213994  0.83134825    -0.28110
C668        C  0.60138938  0.97229563  0.81499355    -0.03350
C669        C  0.61047223  0.98509421  0.80843511     0.05260
C670        C  0.61790864  0.99260197  0.82171635     0.03350
H671        H  0.59316245  0.96414743  0.80844770     0.08460
H672        H  0.62508211  0.00380713  0.82161447     0.07290
N673        N  0.42856011  0.05317846  0.18030613    -0.27100
N674        N  0.42500305  0.04955045  0.16487359    -0.34950
C675        C  0.43398675  0.05919803  0.15489096     0.01240
C676        C  0.44374272  0.06919385  0.16454640     0.07270
C677        C  0.43991596  0.06518408  0.18057654    -0.05830
H678        H  0.43374333  0.05868531  0.14161074     0.07940
H679        H  0.44517812  0.07039981  0.19161498     0.09140
Cu680      Cu  0.40924439  0.03064331  0.15816332     0.44170
Cu681      Cu  0.41895087  0.04069627  0.20023817     0.41990
Cu682      Cu  0.39765961  0.00270805  0.19075912     0.43880
N683        N  0.39638492  0.00893949  0.15437829    -0.34480
N684        N  0.39270771  0.99845124  0.16620875    -0.28740
C685        C  0.38593816  0.98493674  0.15953296    -0.04840
C686        C  0.38545286  0.98691227  0.14264282     0.07380
C687        C  0.39186776  0.00245870  0.13987773     0.01180
H688        H  0.38212549  0.97422530  0.16643145     0.08830
H689        H  0.39327187  0.00869916  0.12828131     0.07910
N690        N  0.40375618  0.01004551  0.21430361    -0.35930
N691        N  0.41111305  0.02410363  0.21779910    -0.28110
C692        C  0.41348642  0.02504961  0.23410580    -0.03350
C693        C  0.40764105  0.01073175  0.24116616     0.05260
C694        C  0.40133755  0.00162420  0.22828349     0.03350
H695        H  0.41891730  0.03549619  0.24025151     0.08460
H696        H  0.39566275  0.98960614  0.22899266     0.07290
N697        N  0.55377611  0.15454902  0.09337493    -0.27100
N698        N  0.55009571  0.13904081  0.09657090    -0.34950
C699        C  0.56102425  0.12926214  0.08890661     0.01240
C700        C  0.57223116  0.13911416  0.08072107     0.07270
C701        C  0.56711543  0.15504807  0.08364791    -0.05830
H702        H  0.56036824  0.11597828  0.08871812     0.07940
H703        H  0.57248693  0.16619139  0.07875311     0.09140
Cu704      Cu  0.53008120  0.13188691  0.11077647     0.44170
Cu705      Cu  0.54034470  0.17443593  0.10177342     0.41990
Cu706      Cu  0.50966392  0.16524616  0.13214665     0.43880
N707        N  0.51007058  0.12864276  0.12635696    -0.34480
N708        N  0.50309360  0.14080277  0.13457661    -0.28740
C709        C  0.49054549  0.13484040  0.14350581    -0.04840
C710        C  0.48924289  0.11813535  0.14050688     0.07380
C711        C  0.50200954  0.11460936  0.12976264     0.01180
H712        H  0.48313379  0.14223217  0.15165761     0.08830
H713        H  0.50503476  0.10272501  0.12457782     0.07910
N714        N  0.51509730  0.18886748  0.12447354    -0.35930
N715        N  0.52594160  0.19220548  0.11286839    -0.28110
C716        C  0.52549710  0.20838849  0.10955308    -0.03350
C717        C  0.51401497  0.21566962  0.11982050     0.05260
C718        C  0.50754670  0.20285235  0.12896194     0.03350
H719        H  0.53239028  0.21411158  0.09977441     0.08460
H720        H  0.49770634  0.20357419  0.13788579     0.07290
N721        N  0.84836463  0.91870883  0.47191460    -0.27100
N722        N  0.86392404  0.91574785  0.47563606    -0.34950
C723        C  0.87361358  0.92461739  0.46555282     0.01240
C724        C  0.86366419  0.93362533  0.45513788     0.07270
C725        C  0.84776451  0.92950929  0.45941889    -0.05830
H726        H  0.88689031  0.92493214  0.46614041     0.07940
H727        H  0.83656770  0.93437270  0.45417072     0.09140
Cu728      Cu  0.87137893  0.90080126  0.49508786     0.44170
Cu729      Cu  0.82840000  0.90922838  0.48468421     0.41990
Cu730      Cu  0.83834707  0.88184186  0.51783327     0.43880
N731        N  0.87498618  0.88644845  0.51602067    -0.34480
N732        N  0.86278195  0.87940248  0.52412183    -0.28740
C733        C  0.86873977  0.87191722  0.53757040    -0.04840
C734        C  0.88549399  0.87449458  0.53808896     0.07380
C735        C  0.88910850  0.88356995  0.52415247     0.01180
H736        H  0.86133445  0.86538716  0.54647352     0.08830
H737        H  0.90102877  0.88821611  0.52051785     0.07910
N738        N  0.81470745  0.88935862  0.51262825    -0.35930
N739        N  0.81093898  0.89959962  0.50061124    -0.28110
C740        C  0.79477651  0.90305099  0.50141579    -0.03350
C741        C  0.78821599  0.89476267  0.51474174     0.05260
C742        C  0.80112544  0.88600702  0.52139297     0.03350
H743        H  0.78837714  0.91131591  0.49321374     0.08460
H744        H  0.80076139  0.87791236  0.53192138     0.07290
N745        N  0.11972049  0.99198019  0.66778623    -0.27100
N746        N  0.11050211  0.98554250  0.65612282    -0.34950
C747        C  0.11329365  0.99382064  0.64209975     0.01240
C748        C  0.12497602  0.00611466  0.64488795     0.07270
C749        C  0.12881350  0.00420453  0.66145109    -0.05830
H750        H  0.10689049  0.99125304  0.63075194     0.07940
H751        H  0.13737779  0.01099280  0.66881911     0.09140
Cu752      Cu  0.09448474  0.96584716  0.65996057     0.44170
Cu753      Cu  0.11808213  0.98582798  0.69239456     0.41990
Cu754      Cu  0.08811126  0.95541901  0.70281542     0.43880
N755        N  0.07982261  0.94631056  0.66786277    -0.34480
N756        N  0.07774454  0.94253002  0.68352993    -0.28740
C757        C  0.06729990  0.92978849  0.68473952    -0.04840
C758        C  0.06231693  0.92544786  0.66910634     0.07380
C759        C  0.07066138  0.93601773  0.65867633     0.01180
H760        H  0.06354686  0.92423439  0.69620357     0.08830
H761        H  0.06971601  0.93652491  0.64543019     0.07910
N762        N  0.09926194  0.97038004  0.72005563    -0.35930
N763        N  0.11064531  0.98131548  0.71628389    -0.28110
C764        C  0.11486542  0.98960617  0.72993485    -0.03350
C765        C  0.10580775  0.98347342  0.74297065     0.05260
C766        C  0.09584955  0.97146326  0.73617768     0.03350
H767        H  0.12349023  0.99973230  0.73025882     0.08460
H768        H  0.08614514  0.96467958  0.74218618     0.07290
N769        N  0.00049752  0.85442468  0.64327706    -0.27100
N770        N  0.99313204  0.86640886  0.63509763    -0.34950
C771        C  0.00139230  0.88051613  0.63776054     0.01240
C772        C  0.01466964  0.87717746  0.64784797     0.07270
C773        C  0.01357785  0.86058275  0.65128071    -0.05830
H774        H  0.99823893  0.89226283  0.63238784     0.07940
H775        H  0.02174443  0.85341998  0.65891589     0.09140
Cu776      Cu  0.97275959  0.86306550  0.61981017     0.44170
Cu777      Cu  0.99397808  0.82978195  0.64212404     0.41990
Cu778      Cu  0.96161417  0.82063877  0.61408816     0.43880
N779        N  0.95315345  0.85547351  0.60506158    -0.34480
N780        N  0.94888831  0.83986418  0.60360249    -0.28740
C781        C  0.93624489  0.83857530  0.59309917    -0.04840
C782        C  0.93256740  0.85406927  0.58720910     0.07380
C783        C  0.94334609  0.86454867  0.59528121     0.01180
H784        H  0.93031919  0.82710662  0.58998006     0.08830
H785        H  0.94433128  0.87772864  0.59372154     0.07910
N786        N  0.97710873  0.80294710  0.62351694    -0.35930
N787        N  0.98845535  0.80605037  0.63460260    -0.28110
C788        C  0.99656120  0.79205098  0.63791419    -0.03350
C789        C  0.99024600  0.77935834  0.62820665     0.05260
C790        C  0.97795830  0.78707021  0.61913046     0.03350
H791        H  0.00664496  0.79137660  0.64651514     0.08460
H792        H  0.97044261  0.78213267  0.60950604     0.07290
N793        N  0.92953940  0.04767498  0.36961564    -0.27100
N794        N  0.92881731  0.04264679  0.38504252    -0.34950
C795        C  0.93832103  0.05259109  0.39425029     0.01240
C796        C  0.94546623  0.06436144  0.38413420     0.07270
C797        C  0.93925837  0.06098803  0.36865443    -0.05830
H798        H  0.94014180  0.05119571  0.40733920     0.07940
H799        H  0.94139923  0.06763333  0.35742113     0.09140
Cu800      Cu  0.91494002  0.02244099  0.39281432     0.44170
Cu801      Cu  0.91891389  0.03559068  0.34992267     0.41990
Cu802      Cu  0.89260277  0.00210436  0.36008500     0.43880
N803        N  0.89933158  0.00233266  0.39645740    -0.34480
N804        N  0.89073970  0.99553285  0.38447375    -0.28740
C805        C  0.88209056  0.98280146  0.39043238    -0.04840
C806        C  0.88565667  0.98111101  0.40695255     0.07380
C807        C  0.89641886  0.99391520  0.41041234     0.01180
H808        H  0.87383493  0.97544246  0.38312719     0.08830
H809        H  0.90202622  0.99664208  0.42215049     0.07910
N810        N  0.90002812  0.00706229  0.33637843    -0.35930
N811        N  0.90982065  0.01942200  0.33252033    -0.28110
C812        C  0.91317599  0.01876509  0.31634486    -0.03350
C813        C  0.90531130  0.00515508  0.30986316     0.05260
C814        C  0.89689938  0.99816399  0.32283233     0.03350
H815        H  0.92093154  0.02739181  0.30984062     0.08460
H816        H  0.88905381  0.98742625  0.32247976     0.07290
N817        N  0.05502826  0.15092368  0.45369805    -0.27100
N818        N  0.05342654  0.13606579  0.44731528    -0.34950
C819        C  0.06452254  0.12597999  0.45417412     0.01240
C820        C  0.07324126  0.13463183  0.46597749     0.07270
C821        C  0.06702799  0.15052586  0.46506282    -0.05830
H822        H  0.06587974  0.11326660  0.45070723     0.07940
H823        H  0.07070169  0.16098007  0.47243512     0.09140
Cu824      Cu  0.03488207  0.12905945  0.43134936     0.44170
Cu825      Cu  0.04084182  0.17099985  0.44652868     0.41990
Cu826      Cu  0.01082843  0.16113505  0.41477735     0.43880
N827        N  0.01328611  0.12471550  0.41859421    -0.34480
N828        N  0.00429571  0.13675058  0.41246600    -0.28740
C829        C  0.99059813  0.13042139  0.40573519    -0.04840
C830        C  0.99100029  0.11358447  0.40784035     0.07380
C831        C  0.00559409  0.11032718  0.41588731     0.01180
H832        H  0.98104177  0.13754243  0.39985925     0.08830
H833        H  0.01017369  0.09842516  0.41965776     0.07910
N834        N  0.01622190  0.18467103  0.42246540    -0.35930
N835        N  0.02617746  0.18835154  0.43473713    -0.28110
C836        C  0.02497740  0.20456919  0.43781686    -0.03350
C837        C  0.01363044  0.21138107  0.42702884     0.05260
C838        C  0.00872294  0.19837344  0.41722484     0.03350
H839        H  0.03159243  0.21088273  0.44746896     0.08460
H840        H  0.00026804  0.19856341  0.40707262     0.07290
N841        N  0.16012011  0.06592753  0.57619807    -0.27100
N842        N  0.14464280  0.06996020  0.57324965    -0.34950
C843        C  0.13487741  0.06165081  0.58372706     0.01240
C844        C  0.14472814  0.05197415  0.59363785     0.07270
C845        C  0.16062599  0.05508386  0.58863924    -0.05830
H846        H  0.12160689  0.06241497  0.58394824     0.07940
H847        H  0.17172433  0.04952535  0.59338545     0.09140
Cu848      Cu  0.13747221  0.08596584  0.55457791     0.44170
Cu849      Cu  0.18000264  0.07426166  0.56270285     0.41990
Cu850      Cu  0.17066292  0.10120937  0.52919589     0.43880
N851        N  0.13401265  0.10077793  0.53397131    -0.34480
N852        N  0.14619848  0.10588765  0.52453319    -0.28740
C853        C  0.14002987  0.11378600  0.51142509    -0.04840
C854        C  0.12308052  0.11408868  0.51278929     0.07380
C855        C  0.11972297  0.10553678  0.52717258     0.01180
H856        H  0.14740802  0.11795612  0.50122793     0.08830
H857        H  0.10771554  0.10247738  0.53201062     0.07910
N858        N  0.19425960  0.09440851  0.53542243    -0.35930
N859        N  0.19771816  0.08400641  0.54728445    -0.28110
C860        C  0.21398562  0.08123820  0.54743275    -0.03350
C861        C  0.22147521  0.09059880  0.53511535     0.05260
C862        C  0.20823053  0.09882517  0.52792339     0.03350
H863        H  0.21935702  0.07274212  0.55591544     0.08460
H864        H  0.20845547  0.10748419  0.51788203     0.07290
N865        N  0.66032936  0.42073041  0.46798615    -0.27100
N866        N  0.64475859  0.41659807  0.47028424    -0.34950
C867        C  0.63527117  0.42569702  0.46023823     0.01240
C868        C  0.64535003  0.43604173  0.45127338     0.07270
C869        C  0.66114408  0.43249209  0.45638186    -0.05830
H870        H  0.62199936  0.42508207  0.45975249     0.07940
H871        H  0.67236578  0.43833118  0.45227670     0.09140
Cu872      Cu  0.63688070  0.39973466  0.48789926     0.44170
Cu873      Cu  0.67976725  0.41114297  0.48149691     0.41990
Cu874      Cu  0.66823810  0.38352109  0.51441972     0.43880
N875        N  0.63189550  0.38583809  0.50882326    -0.34480
N876        N  0.64342718  0.38069869  0.51893797    -0.28740
C877        C  0.63632793  0.37431222  0.53238993    -0.04840
C878        C  0.61929453  0.37524497  0.53083869     0.07380
C879        C  0.61712161  0.38243095  0.51540456     0.01180
H880        H  0.64321484  0.36988974  0.54283877     0.08830
H881        H  0.60589236  0.38539739  0.50918668     0.07910
N882        N  0.69219425  0.39004538  0.50924908    -0.35930
N883        N  0.69648912  0.40051055  0.49759613    -0.28110
C884        C  0.71275543  0.40329086  0.49866438    -0.03350
C885        C  0.71888778  0.39427589  0.51172748     0.05260
C886        C  0.70555849  0.38575627  0.51790320     0.03350
H887        H  0.71953534  0.41164716  0.49084898     0.08460
H888        H  0.70543954  0.37709875  0.52795381     0.07290
N889        N  0.58157579  0.55281830  0.36662899    -0.27100
N890        N  0.58392698  0.54855700  0.38213886    -0.34950
C891        C  0.57543173  0.55898848  0.39179839     0.01240
C892        C  0.56746796  0.57040798  0.38194206     0.07270
C893        C  0.57151039  0.56592355  0.36604806    -0.05830
H894        H  0.57443270  0.55786693  0.40500579     0.07940
H895        H  0.56653184  0.57092084  0.35481549     0.09140
Cu896      Cu  0.59716677  0.52773182  0.38955971     0.44170
Cu897      Cu  0.59046141  0.53990667  0.34655068     0.41990
Cu898      Cu  0.61750012  0.50676990  0.35616192     0.43880
N899        N  0.61161961  0.50663147  0.39270486    -0.34480
N900        N  0.61973253  0.49980344  0.38045176    -0.28740
C901        C  0.62817985  0.48678625  0.38599610    -0.04840
C902        C  0.62506557  0.48468731  0.40268569     0.07380
C903        C  0.61449793  0.49778130  0.40639525     0.01180
H904        H  0.63587222  0.47965004  0.37800497     0.08830
H905        H  0.60897456  0.50054938  0.41816623     0.07910
N906        N  0.61016126  0.51213040  0.33248239    -0.35930
N907        N  0.59995474  0.52423152  0.32887058    -0.28110
C908        C  0.59647283  0.52366739  0.31272134    -0.03350
C909        C  0.60483308  0.51048752  0.30597645     0.05260
C910        C  0.61348386  0.50352747  0.31877485     0.03350
H911        H  0.58821448  0.53198308  0.30645797     0.08460
H912        H  0.62116319  0.49267406  0.31827819     0.07290
N913        N  0.45144388  0.65399885  0.45000985    -0.27100
N914        N  0.45395207  0.63855502  0.44562005    -0.34950
C915        C  0.44316082  0.62891089  0.45363636     0.01240
C916        C  0.43355750  0.63882156  0.46358918     0.07270
C917        C  0.43900374  0.65465318  0.46084686    -0.05830
H918        H  0.44268506  0.61564163  0.45269721     0.07940
H919        H  0.43445051  0.66582162  0.46647538     0.09140
Cu920      Cu  0.47277255  0.63157920  0.42981470     0.44170
Cu921      Cu  0.46566438  0.67331091  0.44185834     0.41990
Cu922      Cu  0.49849242  0.66408901  0.41305439     0.43880
N923        N  0.49386490  0.62749327  0.41598258    -0.34480
N924        N  0.50353393  0.63918222  0.41033798    -0.28740
C925        C  0.51680403  0.63218342  0.40340013    -0.04840
C926        C  0.51558498  0.61503540  0.40446608     0.07380
C927        C  0.50055660  0.61281822  0.41252482     0.01180
H928        H  0.52681616  0.63930362  0.39837179     0.08830
H929        H  0.49446939  0.60169564  0.41605178     0.07910
N930        N  0.49207757  0.68769937  0.42038958    -0.35930
N931        N  0.48087091  0.69082649  0.43167630    -0.27870
C932        C  0.48109250  0.70692237  0.43528417    -0.03350
C933        C  0.49273181  0.71465472  0.42546082     0.05260
C934        C  0.49940240  0.70187294  0.41617522     0.03350
H935        H  0.47362269  0.71211745  0.44485244     0.08460
H936        H  0.50920338  0.70266483  0.40723027     0.07290
N937        N  0.36077100  0.61101494  0.52267969    -0.27100
N938        N  0.37300945  0.60389450  0.53056374    -0.34950
C939        C  0.38705819  0.60682526  0.52238442     0.01240
C940        C  0.38348085  0.61617670  0.50859917     0.07270
C941        C  0.36667760  0.61882592  0.50937852    -0.05830
H942        H  0.39900649  0.60234020  0.52609852     0.07940
H943        H  0.35920959  0.62607708  0.50119804     0.09140
Cu944      Cu  0.36963490  0.59019581  0.55176160     0.44170
Cu945      Cu  0.33653168  0.60824966  0.52958401     0.41990
Cu946      Cu  0.32814228  0.57585660  0.55943667     0.43880
N947        N  0.36322542  0.57473197  0.57094894    -0.34480
N948        N  0.34838979  0.56860701  0.57311564    -0.28740
C949        C  0.34890318  0.55771084  0.58549935    -0.04840
C950        C  0.36487828  0.55688498  0.59169508     0.07380
C951        C  0.37343710  0.56824002  0.58213309     0.01180
H952        H  0.33835611  0.55063819  0.58941649     0.08830
H953        H  0.38610579  0.57180945  0.58279402     0.07910
N954        N  0.31023894  0.58755448  0.54556694    -0.35930
N955        N  0.31333181  0.59975197  0.53529815    -0.28110
C956        C  0.29927590  0.60441278  0.52807937    -0.03350
C957        C  0.28664139  0.59477138  0.53409714     0.05260
C958        C  0.29408956  0.58407071  0.54504631     0.03350
H959        H  0.29840881  0.61378859  0.51869480     0.08460
H960        H  0.28850092  0.57391796  0.55150231     0.07290
N961        N  0.50458176  0.35678647  0.63567521    -0.27100
N962        N  0.51452948  0.36876615  0.63113997    -0.34950
C963        C  0.50777744  0.38315688  0.63577896     0.01240
C964        C  0.49281060  0.38006221  0.64355845     0.07270
C965        C  0.49120336  0.36313167  0.64292388    -0.05830
H966        H  0.51319510  0.39505358  0.63331182     0.07940
H967        H  0.48086901  0.35578087  0.64668177     0.09140
Cu968      Cu  0.53581850  0.36456791  0.61729921     0.44170
Cu969      Cu  0.50901051  0.33228608  0.63166037     0.41990
Cu970      Cu  0.54301182  0.32120453  0.60653404     0.43880
N971        N  0.55465026  0.35626850  0.60182102    -0.34480
N972        N  0.55699112  0.34063990  0.59793023    -0.28740
C973        C  0.56914117  0.33954280  0.58679116    -0.04840
C974        C  0.57503408  0.35516135  0.58363584     0.07380
C975        C  0.56538180  0.36548429  0.59321027     0.01180
H976        H  0.57257894  0.32826637  0.58063877     0.08830
H977        H  0.56570296  0.37879043  0.59337204     0.07910
N978        N  0.52715771  0.30408541  0.61663585    -0.35930
N979        N  0.51470126  0.30835326  0.62614000    -0.28110
C980        C  0.50634477  0.29486356  0.63060906    -0.03350
C981        C  0.51384468  0.28149330  0.62342406     0.05260
C982        C  0.52705414  0.28765994  0.61471149     0.03350
H983        H  0.49539733  0.29485050  0.63816517     0.08460
H984        H  0.53571393  0.28079268  0.60730073     0.07290
N985        N  0.43148773  0.44678010  0.67974537    -0.27100
N986        N  0.42654398  0.44929714  0.66448487    -0.34950
C987        C  0.43473304  0.43907489  0.65440041     0.01240
C988        C  0.44570563  0.42995871  0.66366832     0.07270
C989        C  0.44309392  0.43500501  0.67972158    -0.05830
H990        H  0.43261353  0.43832618  0.64134165     0.07940
H991        H  0.44942979  0.43066893  0.69056145     0.09140
Cu992      Cu  0.41011561  0.46752535  0.65754604     0.44170
Cu993      Cu  0.42269543  0.45978153  0.69987137     0.41990
Cu994      Cu  0.39652593  0.49432532  0.68976356     0.43880
N995        N  0.39603392  0.48838658  0.65340748    -0.34480
N996        N  0.39112955  0.49826247  0.66533612    -0.28740
C997        C  0.38338226  0.51129240  0.65880017    -0.04840
C998        C  0.38321181  0.50944551  0.64192578     0.07380
C999        C  0.39155304  0.49491321  0.63891201     0.01180
H1000       H  0.37909046  0.52177646  0.66578384     0.08830
H1001       H  0.39471296  0.48982283  0.62703099     0.07910
N1002       N  0.40335791  0.48829025  0.71338709    -0.35930
N1003       N  0.41272429  0.47559459  0.71724131    -0.28110
C1004       C  0.41484588  0.47531852  0.73363367    -0.03350
C1005       C  0.40663039  0.48867099  0.74031092     0.05260
C1006       C  0.39933998  0.49646687  0.72713716     0.03350
H1007       H  0.42167562  0.46596404  0.74010484     0.08460
H1008       H  0.39185958  0.50746614  0.72749265     0.07290
N1009       N  0.57950926  0.05161662  0.68176656    -0.27100
N1010       N  0.58399061  0.04872969  0.66644662    -0.34950
C1011       C  0.57562539  0.05879909  0.65640335     0.01240
C1012       C  0.56475268  0.06821006  0.66567398     0.07270
C1013       C  0.56784686  0.06333972  0.68178449    -0.05830
H1014       H  0.57750765  0.05890812  0.64333878     0.07940
H1015       H  0.56172156  0.06768276  0.69276526     0.09140
Cu1016     Cu  0.59958350  0.02977694  0.65935600     0.44170
Cu1017     Cu  0.58921109  0.03910349  0.70181716     0.41990
Cu1018     Cu  0.61511217  0.00401815  0.69148675     0.43880
N1019       N  0.61324408  0.00863583  0.65495359    -0.34480
N1020       N  0.61908457  0.99925071  0.66682895    -0.28740
C1021       C  0.62670996  0.98618388  0.66015025    -0.04840
C1022       C  0.62577072  0.98745405  0.64322240     0.07380
C1023       C  0.61689673  0.00171521  0.64037780     0.01180
H1024       H  0.63215536  0.97625084  0.66710203     0.08830
H1025       H  0.61262571  0.00630476  0.62868250     0.07910
N1026       N  0.60875804  0.01056514  0.71522510    -0.35930
N1027       N  0.59972963  0.02350960  0.71910183    -0.28110
C1028       C  0.59778900  0.02397566  0.73551643    -0.03350
C1029       C  0.60560282  0.01040344  0.74227236     0.05260
C1030       C  0.61259588  0.00236039  0.72900336     0.03350
H1031       H  0.59121399  0.03357766  0.74188137     0.08460
H1032       H  0.61963709  0.99107247  0.72930175     0.07290
N1033       N  0.50160269  0.13880789  0.64111574    -0.27100
N1034       N  0.49225853  0.12656605  0.63603902    -0.34950
C1035       C  0.49950254  0.11232967  0.64038771     0.01240
C1036       C  0.51403257  0.11588215  0.64869269     0.07270
C1037       C  0.51497633  0.13284046  0.64866389    -0.05830
H1038       H  0.49493632  0.10025950  0.63712395     0.07940
H1039       H  0.52514261  0.14038229  0.65261707     0.09140
Cu1040     Cu  0.47126891  0.13063093  0.62178953     0.44170
Cu1041     Cu  0.49676189  0.16299331  0.63618251     0.41990
Cu1042     Cu  0.46044319  0.17448530  0.61458001     0.43880
N1043       N  0.45226859  0.13885254  0.60655432    -0.34480
N1044       N  0.44845685  0.15449715  0.60405299    -0.28740
C1045       C  0.43633432  0.15536356  0.59285543    -0.04840
C1046       C  0.43239680  0.13958417  0.58796364     0.07380
C1047       C  0.44257498  0.12941865  0.59700919     0.01180
H1048       H  0.43094113  0.16669438  0.58846958     0.08830
H1049       H  0.44323734  0.11614302  0.59631603     0.07910
N1050       N  0.47713931  0.19150539  0.62375820    -0.35930
N1051       N  0.49088897  0.18686829  0.63090919    -0.28110
C1052       C  0.50035388  0.20001281  0.63372548    -0.03350
C1053       C  0.49209806  0.21398428  0.62860725     0.05260
C1054       C  0.47735139  0.20797050  0.62221824     0.03350
H1055       H  0.51268335  0.19898967  0.63844888     0.08460
H1056       H  0.46767167  0.21496691  0.61641163     0.07290
N1057       N  0.66065880  0.92374104  0.57849456    -0.27100
N1058       N  0.64512319  0.91981357  0.57568462    -0.34950
C1059       C  0.63546963  0.92803665  0.58631516     0.01240
C1060       C  0.64535841  0.93738363  0.59651788     0.07270
C1061       C  0.66122920  0.93450442  0.59105087    -0.05830
H1062       H  0.62219761  0.92784809  0.58598767     0.07940
H1063       H  0.67236251  0.94014660  0.59563156     0.09140
Cu1064     Cu  0.63720150  0.90413452  0.55710496     0.44170
Cu1065     Cu  0.68055487  0.91508817  0.56479009     0.41990
Cu1066     Cu  0.66956688  0.88329746  0.53620387     0.43880
N1067       N  0.63311526  0.88840190  0.53738027    -0.34480
N1068       N  0.64523817  0.88082263  0.52969761    -0.28740
C1069       C  0.63926610  0.87286425  0.51653483    -0.04840
C1070       C  0.62243277  0.87514232  0.51607062     0.07380
C1071       C  0.61899214  0.88526774  0.52937415     0.01180
H1072       H  0.64686305  0.86695144  0.50737932     0.08830
H1073       H  0.60719558  0.89052487  0.53256260     0.07910
N1074       N  0.69342503  0.89057119  0.54038869    -0.35930
N1075       N  0.69757291  0.90306737  0.54982969    -0.28110
C1076       C  0.71371541  0.90604177  0.54774629    -0.03350
C1077       C  0.72011356  0.89482376  0.53641302     0.05260
C1078       C  0.70673764  0.88500805  0.53243423     0.03350
H1079       H  0.72022107  0.91596042  0.55376214     0.08460
H1080       H  0.70624030  0.87462899  0.52427610     0.07290
N1081       N  0.36289865  0.11236921  0.52512686    -0.27100
N1082       N  0.37523283  0.10466482  0.51787230    -0.34950
C1083       C  0.38909944  0.10766799  0.52635594     0.01240
C1084       C  0.38522096  0.11754159  0.53968340     0.07270
C1085       C  0.36855102  0.12050719  0.53833315    -0.05830
H1086       H  0.40105912  0.10271640  0.52328891     0.07940
H1087       H  0.36100237  0.12802875  0.54627314     0.09140
Cu1088     Cu  0.37232129  0.08991152  0.49720396     0.44170
Cu1089     Cu  0.33867794  0.11018797  0.51792334     0.41990
Cu1090     Cu  0.33014471  0.08308996  0.48398920     0.43880
N1091       N  0.36579710  0.07583197  0.47690350    -0.34480
N1092       N  0.35046622  0.07350239  0.47206075    -0.28740
C1093       C  0.35042135  0.06343607  0.45896024    -0.04840
C1094       C  0.36649574  0.05935429  0.45523627     0.07380
C1095       C  0.37590475  0.06725666  0.46700671     0.01180
H1096       H  0.33946075  0.05910556  0.45281225     0.08830
H1097       H  0.38901456  0.06623516  0.46882474     0.07910
N1098       N  0.31208454  0.09317369  0.49879447    -0.35930
N1099       N  0.31525297  0.10316603  0.51120516    -0.28110
C1100       C  0.30120859  0.10642095  0.51926525    -0.03350
C1101       C  0.28858354  0.09827817  0.51139233     0.05260
C1102       C  0.29590708  0.08985084  0.49857931     0.03350
H1103       H  0.30035831  0.11360968  0.53043157     0.08460
H1104       H  0.29008560  0.08123301  0.49028610     0.07290
N1105       N  0.39448698  0.99951159  0.38425891    -0.27100
N1106       N  0.40065435  0.99026925  0.39611235    -0.34950
C1107       C  0.39652293  0.99691770  0.41069557     0.01240
C1108       C  0.38722940  0.01086803  0.40777983     0.07270
C1109       C  0.38635539  0.01224591  0.39092360    -0.05830
H1110       H  0.40049898  0.99228860  0.42249299     0.07940
H1111       H  0.38054550  0.02198714  0.38399673     0.09140
Cu1112     Cu  0.41521917  0.96963388  0.39182823     0.44170
Cu1113     Cu  0.39789849  0.99525462  0.35952846     0.41990
Cu1114     Cu  0.42260299  0.96071985  0.34863249     0.43880
N1115       N  0.42989834  0.95038541  0.38343280    -0.34480
N1116       N  0.43254108  0.94738552  0.36775933    -0.28740
C1117       C  0.44314100  0.93486485  0.36628085    -0.04840
C1118       C  0.44767462  0.92928632  0.38185217     0.07380
C1119       C  0.43872490  0.93966474  0.39234703     0.01180
H1120       H  0.44711375  0.93085003  0.35440485     0.08830
H1121       H  0.43862586  0.93977979  0.40560625     0.07910
N1122       N  0.41258149  0.97646556  0.33148968    -0.35930
N1123       N  0.40339957  0.98922576  0.33555866    -0.28110
C1124       C  0.39928834  0.99750914  0.32190431    -0.03350
C1125       C  0.40609980  0.98944178  0.30861305     0.05260
C1126       C  0.41462325  0.97627944  0.31510742     0.03350
H1127       H  0.39239716  0.00888759  0.32175541     0.08460
H1128       H  0.42203368  0.96744050  0.30846240     0.07290
N1129       N  0.50698148  0.85682251  0.41047933    -0.27100
N1130       N  0.51685804  0.86855693  0.41581968    -0.34950
C1131       C  0.50997232  0.88324805  0.41265994     0.01240
C1132       C  0.49498030  0.88056261  0.40512541     0.07270
C1133       C  0.49357295  0.86369431  0.40372949    -0.05830
H1134       H  0.51546410  0.89497444  0.41570767     0.07940
H1135       H  0.48335692  0.85690989  0.39858761     0.09140
Cu1136     Cu  0.53844268  0.86385944  0.42848318     0.44170
Cu1137     Cu  0.51167563  0.83211239  0.41384274     0.41990
Cu1138     Cu  0.54404466  0.82211966  0.44298267     0.43880
N1139       N  0.55648702  0.85687284  0.44501957    -0.34480
N1140       N  0.55779043  0.84196809  0.45121758    -0.28740
C1141       C  0.56919856  0.84218092  0.46313395    -0.04840
C1142       C  0.57565125  0.85802524  0.46458823     0.07380
C1143       C  0.56728584  0.86682969  0.45251791     0.01180
H1144       H  0.57221146  0.83154329  0.47049548     0.08830
H1145       H  0.56845866  0.87953661  0.44917753     0.07910
N1146       N  0.52955454  0.80473460  0.43122203    -0.35930
N1147       N  0.51791484  0.80844144  0.42052202    -0.28110
C1148       C  0.51032429  0.79457518  0.41576874    -0.03350
C1149       C  0.51767485  0.78148314  0.42366198     0.05260
C1150       C  0.52968616  0.78836301  0.43352156     0.03350
H1151       H  0.49981486  0.79411690  0.40765399     0.08460
H1152       H  0.53734041  0.78208600  0.44237252     0.07290
C1153       C  0.47942805  0.89354915  0.38274054    -0.05590
C1154       C  0.48295341  0.89291655  0.39948670     0.00340
C1155       C  0.47455612  0.90339578  0.41041411    -0.08230
C1156       C  0.46337220  0.91486111  0.40397076    -0.05610
C1157       C  0.45987342  0.91612284  0.38697797     0.00330
C1158       C  0.46807671  0.90484158  0.37610699    -0.08140
C1159       C  0.46545482  0.90425718  0.35763653     0.62240
H1160       H  0.48598858  0.88508489  0.37481088     0.12930
H1161       H  0.45747786  0.92304934  0.41253399     0.12940
C1162       C  0.47705745  0.90218373  0.42888562     0.62470
F1163       F  0.47365187  0.89124052  0.35031106    -0.22690
F1164       F  0.47154543  0.91846818  0.35058299    -0.20020
F1165       F  0.44894067  0.90221184  0.35418886    -0.19700
F1166       F  0.49273493  0.90728477  0.43291250    -0.19750
F1167       F  0.47488987  0.88609398  0.43395683    -0.20080
F1168       F  0.46601927  0.91188060  0.43748878    -0.22750
C1169       C  0.36431565  0.03184558  0.44258947    -0.05590
C1170       C  0.37198441  0.04731715  0.44274878     0.00340
C1171       C  0.38400378  0.05108926  0.43069958    -0.08230
C1172       C  0.38865932  0.03875909  0.41950394    -0.05610
C1173       C  0.38149740  0.02309611  0.41986206     0.00330
C1174       C  0.36876992  0.01965310  0.43116943    -0.08140
C1175       C  0.35954885  0.00343874  0.43069797     0.62240
H1176       H  0.35481230  0.02935929  0.45157895     0.12930
H1177       H  0.39807777  0.04120300  0.41040890     0.12940
C1178       C  0.39147670  0.06813597  0.42920904     0.62470
F1179       F  0.34676657  0.00308160  0.44193259    -0.22690
F1180       F  0.37010635  0.99064180  0.43430693    -0.20020
F1181       F  0.35299879  0.00106254  0.41519443    -0.19700
F1182       F  0.40194938  0.07102778  0.44222831    -0.19750
F1183       F  0.37918760  0.07989200  0.42912690    -0.20080
F1184       F  0.40042399  0.06985615  0.41483008    -0.22750
C1185       C  0.60159487  0.88301841  0.49558049    -0.05590
C1186       C  0.61104384  0.87052338  0.50262932     0.00340
C1187       C  0.60922367  0.85419971  0.49695196    -0.08230
C1188       C  0.59816548  0.85109667  0.48404045    -0.05610
C1189       C  0.58828040  0.86350000  0.47699948     0.00330
C1190       C  0.59020338  0.87997369  0.48290511    -0.08140
C1191       C  0.58069894  0.89458306  0.47621355     0.62240
H1192       H  0.60342223  0.89542179  0.50009019     0.12930
H1193       H  0.59722764  0.83868472  0.47938778     0.12940
C1194       C  0.61823198  0.83992607  0.50497429     0.62470
F1195       F  0.58319561  0.90867878  0.48543646    -0.22690
F1196       F  0.56401197  0.89138539  0.47647756    -0.20020
F1197       F  0.58598627  0.89798431  0.46043183    -0.19700
F1198       F  0.61595050  0.84042256  0.52181536    -0.19750
F1199       F  0.63481223  0.84076928  0.50148379    -0.20080
F1200       F  0.61255515  0.82487366  0.49940807    -0.22750
C1201       C  0.41061943  0.13221720  0.54727366    -0.05590
C1202       C  0.39667411  0.12352909  0.55247696     0.00340
C1203       C  0.39454061  0.11999064  0.56942070    -0.08230
C1204       C  0.40650899  0.12553456  0.58062097    -0.05610
C1205       C  0.42025122  0.13453425  0.57542786     0.00330
C1206       C  0.42246845  0.13790162  0.55849655    -0.08140
C1207       C  0.43746839  0.14708076  0.55225558     0.62240
H1208       H  0.41209225  0.13460151  0.53426310     0.12930
H1209       H  0.40519195  0.12298006  0.59361513     0.12940
C1210       C  0.38004226  0.10999934  0.57566294     0.62470
F1211       F  0.43808478  0.14742929  0.53525743    -0.22690
F1212       F  0.45161526  0.13949814  0.55783532    -0.20020
F1213       F  0.43710395  0.16312999  0.55781437    -0.19700
F1214       F  0.37866565  0.09555163  0.56678881    -0.19750
F1215       F  0.36573170  0.11898925  0.57410781    -0.20080
F1216       F  0.38178279  0.10588667  0.59207096    -0.22750
C1217       C  0.54823499  0.09320754  0.67155312    -0.05590
C1218       C  0.55216304  0.08060381  0.66031691     0.00340
C1219       C  0.54323155  0.07980126  0.64524233    -0.08230
C1220       C  0.53102603  0.09166605  0.64215272    -0.05610
C1221       C  0.52717683  0.10410703  0.65340293     0.00330
C1222       C  0.53578803  0.10485068  0.66852360    -0.08140
C1223       C  0.53175737  0.11747656  0.68172435     0.62240
H1224       H  0.55513216  0.09401401  0.68288029     0.12930
H1225       H  0.52445912  0.09149936  0.63059150     0.12940
C1226       C  0.54613408  0.06675216  0.63219312     0.62470
F1227       F  0.53837926  0.11313725  0.69677762    -0.22690
F1228       F  0.51492569  0.11879758  0.68374096    -0.20020
F1229       F  0.53817954  0.13258958  0.67742335    -0.19700
F1230       F  0.54668320  0.05129652  0.63922639    -0.19750
F1231       F  0.56061664  0.07008863  0.62396997    -0.20080
F1232       F  0.53369762  0.06650469  0.62058901    -0.22750
C1233       C  0.62557244  0.95871486  0.63333011    -0.05590
C1234       C  0.63105859  0.97492130  0.63109082     0.00340
C1235       C  0.64185603  0.97856670  0.61791738    -0.08230
C1236       C  0.64609776  0.96591346  0.60689720    -0.05610
C1237       C  0.64014193  0.94983167  0.60878473     0.00330
C1238       C  0.63001574  0.94599735  0.62244861    -0.08140
C1239       C  0.62441866  0.92852868  0.62595287     0.62240
H1240       H  0.61761495  0.95611991  0.64368559     0.12930
H1241       H  0.65410711  0.96850698  0.59658270     0.12940
C1242       C  0.64950912  0.99547844  0.61590721     0.62470
F1243       F  0.61696182  0.92722073  0.64119962    -0.22690
F1244       F  0.63778612  0.91802085  0.62575892    -0.20020
F1245       F  0.61319073  0.92355928  0.61425510    -0.19700
F1246       F  0.65716669  0.00006156  0.63036998    -0.19750
F1247       F  0.63757056  0.00688128  0.61201728    -0.20080
F1248       F  0.66116325  0.99572191  0.60350194    -0.22750
C1249       C  0.51468079  0.25464631  0.63709244    -0.05590
C1250       C  0.50838672  0.26434541  0.62446038     0.00340
C1251       C  0.49666992  0.25785679  0.61351958    -0.08230
C1252       C  0.49194480  0.24136152  0.61529501    -0.05610
C1253       C  0.49819100  0.23131782  0.62794772     0.00330
C1254       C  0.50964192  0.23826036  0.63934350    -0.08140
C1255       C  0.51674759  0.22901882  0.65393772     0.62240
H1256       H  0.52363753  0.26012702  0.64528444     0.12930
H1257       H  0.48338471  0.23619168  0.60655309     0.12940
C1258       C  0.48924806  0.26841589  0.60005641     0.62470
F1259       F  0.52318803  0.23967899  0.66554706    -0.22690
F1260       F  0.52942182  0.21898384  0.64870224    -0.20020
F1261       F  0.50473617  0.21985500  0.66172356    -0.19700
F1262       F  0.50153493  0.27393889  0.58968938    -0.19750
F1263       F  0.48132999  0.28179386  0.60696081    -0.20080
F1264       F  0.47789796  0.25981956  0.59075251    -0.22750
C1265       C  0.45846279  0.40261474  0.66687453    -0.05590
C1266       C  0.45768763  0.41738555  0.65804848     0.00340
C1267       C  0.46893989  0.42010742  0.64502103    -0.08230
C1268       C  0.47986560  0.40743288  0.64068657    -0.05610
C1269       C  0.48053227  0.39246975  0.64929505     0.00330
C1270       C  0.46987061  0.39017107  0.66302308    -0.08140
C1271       C  0.47033428  0.37505082  0.67399741     0.62240
H1272       H  0.44990911  0.40085019  0.67693222     0.12930
H1273       H  0.48795744  0.40916466  0.63027491     0.12940
C1274       C  0.47007138  0.43645434  0.63605822     0.62470
F1275       F  0.46318748  0.37815303  0.68914029    -0.22690
F1276       F  0.48635485  0.37019285  0.67691077    -0.20020
F1277       F  0.46164267  0.36240345  0.66672068    -0.19700
F1278       F  0.47022205  0.44928236  0.64722977    -0.19750
F1279       F  0.45689952  0.43819944  0.62553212    -0.20080
F1280       F  0.48429745  0.43756897  0.62677389    -0.22750
C1281       C  0.35853251  0.53929667  0.61589572    -0.05590
C1282       C  0.37068950  0.54562481  0.60520936     0.00340
C1283       C  0.38725745  0.54004009  0.60726511    -0.08230
C1284       C  0.39061125  0.52825515  0.61948363    -0.05610
C1285       C  0.37834655  0.52188703  0.62965686     0.00330
C1286       C  0.36199759  0.52731393  0.62785266    -0.08140
C1287       C  0.34815605  0.51989191  0.63796938     0.62240
H1288       H  0.34606477  0.54371792  0.61485285     0.12930
H1289       H  0.40304516  0.52391149  0.62139205     0.12940
C1290       C  0.40165675  0.54616913  0.59707294     0.62470
F1291       F  0.33290349  0.52562122  0.63308735    -0.22690
F1292       F  0.35017893  0.52379830  0.65436092    -0.20020
F1293       F  0.34821541  0.50297233  0.63617732    -0.19700
F1294       F  0.40486770  0.56238456  0.60103392    -0.19750
F1295       F  0.39829422  0.54450719  0.58050777    -0.20080
F1296       F  0.41591573  0.53739326  0.60012758    -0.22750
C1297       C  0.51475486  0.73507615  0.42031106    -0.05590
C1298       C  0.49847165  0.73217370  0.42555063     0.00340
C1299       C  0.48847682  0.74597456  0.42988340    -0.08230
C1300       C  0.49543112  0.76179830  0.42914665    -0.05610
C1301       C  0.51161597  0.76441110  0.42400522     0.00330
C1302       C  0.52137306  0.75096561  0.41907675    -0.08140
C1303       C  0.53840735  0.75343552  0.41183419     0.62240
H1304       H  0.52250308  0.72474615  0.41718642     0.12930
H1305       H  0.48827916  0.77242622  0.43282723     0.12940
C1306       C  0.47066493  0.74462918  0.43537303     0.62470
F1307       F  0.54509860  0.73883826  0.40616315    -0.22690
F1308       F  0.54886766  0.75978339  0.42358563    -0.20020
F1309       F  0.53751688  0.76421086  0.39871923    -0.19700
F1310       F  0.47006251  0.73917805  0.45143943    -0.19750
F1311       F  0.46204354  0.73410913  0.42518926    -0.20080
F1312       F  0.46274093  0.75969747  0.43487799    -0.22750
C1313       C  0.40627163  0.62672189  0.46886134    -0.05590
C1314       C  0.42074084  0.63348801  0.47524364     0.00340
C1315       C  0.42292401  0.63458756  0.49244137    -0.08230
C1316       C  0.41024295  0.62906478  0.50277038    -0.05610
C1317       C  0.39557073  0.62250893  0.49648245     0.00330
C1318       C  0.39351731  0.62117633  0.47917472    -0.08140
C1319       C  0.37829882  0.61361631  0.47143708     0.62240
H1320       H  0.40501343  0.62595265  0.45563336     0.12930
H1321       H  0.41168699  0.62987042  0.51597293     0.12940
C1322       C  0.43875700  0.64111309  0.49985927     0.62470
F1323       F  0.38051650  0.61057602  0.45483812    -0.22690
F1324       F  0.36517687  0.62426806  0.47300094    -0.20020
F1325       F  0.37459607  0.59881000  0.47892299    -0.19700
F1326       F  0.44045985  0.65761875  0.49624864    -0.19750
F1327       F  0.45203303  0.63256255  0.49353562    -0.20080
F1328       F  0.43900006  0.63942139  0.51678199    -0.22750
C1329       C  0.54172476  0.57574533  0.39693746    -0.05590
C1330       C  0.55436400  0.58201223  0.38716286     0.00340
C1331       C  0.55417758  0.59881789  0.38281731    -0.08230
C1332       C  0.54110198  0.60872234  0.38840766    -0.05610
C1333       C  0.52827493  0.60267615  0.39850927     0.00330
C1334       C  0.52860034  0.58552914  0.40264586    -0.08140
C1335       C  0.51542895  0.57697759  0.41273061     0.62240
H1336       H  0.54216654  0.56276566  0.39986463     0.12930
H1337       H  0.54090900  0.62140048  0.38457330     0.12940
C1338       C  0.56793304  0.60646887  0.37273096     0.62470
F1339       F  0.51901832  0.56057392  0.41555087    -0.22690
F1340       F  0.50070109  0.57735911  0.40427943    -0.20020
F1341       F  0.51401817  0.58442125  0.42794609    -0.19700
F1342       F  0.56724663  0.60078077  0.35675794    -0.19750
F1343       F  0.58300837  0.60246855  0.37947693    -0.20080
F1344       F  0.56679655  0.62345202  0.37227316    -0.22750
C1345       C  0.64130501  0.44444775  0.42244691    -0.05590
C1346       C  0.64034910  0.44853261  0.43906821     0.00340
C1347       C  0.63510521  0.46437249  0.44372631    -0.08230
C1348       C  0.63071362  0.47568578  0.43140386    -0.05610
C1349       C  0.63121248  0.47172463  0.41450242     0.00330
C1350       C  0.63686750  0.45562599  0.40994866    -0.08140
C1351       C  0.63860506  0.44979548  0.39228623     0.62240
H1352       H  0.64572724  0.43225817  0.41937366     0.12930
H1353       H  0.62695933  0.48789654  0.43506892     0.12940
C1354       C  0.63435196  0.46927200  0.46171024     0.62470
F1355       F  0.64194504  0.43312306  0.39130362    -0.22690
F1356       F  0.65161457  0.45787465  0.38492315    -0.20020
F1357       F  0.62417768  0.45247305  0.38373717    -0.19700
F1358       F  0.64976721  0.46771639  0.46868421    -0.19750
F1359       F  0.62344239  0.45917492  0.46995000    -0.20080
F1360       F  0.62921344  0.48536816  0.46375581    -0.22750
C1361       C  0.61239511  0.35852476  0.55552887    -0.05590
C1362       C  0.60699602  0.37006073  0.54373003     0.00340
C1363       C  0.59083540  0.37675459  0.54554098    -0.08230
C1364       C  0.58099726  0.37145017  0.55878671    -0.05610
C1365       C  0.58655796  0.36005309  0.57037227     0.00330
C1366       C  0.60267358  0.35371222  0.56901271    -0.08140
C1367       C  0.60994729  0.34257096  0.58212919     0.62240
H1368       H  0.62445380  0.35313017  0.55420336     0.12930
H1369       H  0.56856711  0.37602331  0.56012407     0.12940
C1370       C  0.58350525  0.38932677  0.53387484     0.62470
F1371       F  0.62663162  0.34010845  0.57982415    -0.22690
F1372       F  0.60238513  0.32738397  0.58179143    -0.20020
F1373       F  0.60779841  0.34960050  0.59746825    -0.19700
F1374       F  0.58001372  0.38185485  0.51902697    -0.19750
F1375       F  0.59420971  0.40235272  0.53172112    -0.20080
F1376       F  0.56891466  0.39580871  0.53979389    -0.22750
C1377       C  0.24220860  0.09963731  0.51443160    -0.05590
C1378       C  0.23921863  0.09180778  0.52968199     0.00340
C1379       C  0.25315623  0.08617496  0.53887145    -0.08230
C1380       C  0.26901803  0.08866705  0.53234025    -0.05610
C1381       C  0.27156761  0.09648656  0.51729227     0.00330
C1382       C  0.25808500  0.10241472  0.50829878    -0.08140
C1383       C  0.26053253  0.11219812  0.49258064     0.62240
H1384       H  0.23205000  0.10361838  0.50697708     0.12930
H1385       H  0.27976157  0.08429383  0.53884941     0.12940
C1386       C  0.25195280  0.07738871  0.55528842     0.62470
F1387       F  0.24585873  0.11828231  0.48650130    -0.22690
F1388       F  0.26750635  0.10233953  0.48063174    -0.20020
F1389       F  0.27079546  0.12541643  0.49563085    -0.19700
F1390       F  0.24488676  0.06209681  0.55302857    -0.19750
F1391       F  0.24294965  0.08672994  0.56628184    -0.20080
F1392       F  0.26722454  0.07477947  0.56232730    -0.22750
C1393       C  0.09907101  0.13940978  0.48135208    -0.05590
C1394       C  0.08612255  0.12860067  0.47754596     0.00340
C1395       C  0.08536262  0.11311955  0.48568238    -0.08230
C1396       C  0.09796464  0.10892232  0.49671394    -0.05610
C1397       C  0.11090658  0.11966627  0.50039472     0.00330
C1398       C  0.11137769  0.13536724  0.49282516    -0.08140
C1399       C  0.12426137  0.14816012  0.49724224     0.62240
H1400       H  0.09948576  0.15121175  0.47521580     0.12930
H1401       H  0.09782519  0.09698352  0.50260593     0.12940
C1402       C  0.07132339  0.10099816  0.48339677     0.62470
F1403       F  0.12031907  0.16351159  0.49104606    -0.22690
F1404       F  0.13931282  0.14372584  0.49078052    -0.20020
F1405       F  0.12549597  0.14959587  0.51413403    -0.19700
F1406       F  0.07330205  0.09265775  0.46873878    -0.19750
F1407       F  0.05636039  0.10906058  0.48360923    -0.20080
F1408       F  0.07093533  0.08940688  0.49584627    -0.22750
C1409       C  0.98224007  0.09368703  0.38687505    -0.05590
C1410       C  0.97895250  0.10149734  0.40180705     0.00340
C1411       C  0.96460615  0.09751621  0.41070898    -0.08230
C1412       C  0.95390947  0.08553545  0.40429133    -0.05610
C1413       C  0.95708904  0.07757351  0.38925722     0.00330
C1414       C  0.97159384  0.08173217  0.38032461    -0.08140
C1415       C  0.97628279  0.07365801  0.36414021     0.62240
H1416       H  0.99330475  0.09714954  0.38031729     0.12930
H1417       H  0.94287979  0.08230690  0.41100906     0.12940
C1418       C  0.96079604  0.10582004  0.42697350     0.62470
F1419       F  0.99249615  0.07678236  0.35999074    -0.22690
F1420       F  0.96657249  0.07983744  0.35168236    -0.20020
F1421       F  0.97445744  0.05678622  0.36512817    -0.19700
F1422       F  0.95898996  0.12255329  0.42458344    -0.19750
F1423       F  0.97351293  0.10309689  0.43790182    -0.20080
F1424       F  0.94645130  0.09988325  0.43394694    -0.22750
C1425       C  0.02216556  0.90204404  0.66354310    -0.05590
C1426       C  0.02729910  0.88895400  0.65357938     0.00340
C1427       C  0.04401993  0.88779317  0.64879122    -0.08230
C1428       C  0.05509402  0.89994528  0.65422446    -0.05610
C1429       C  0.05000990  0.91287961  0.66443445     0.00330
C1430       C  0.03328472  0.91401862  0.66923010    -0.08140
C1431       C  0.02707861  0.92798841  0.67997032     0.62240
H1432       H  0.00931235  0.90270856  0.66695975     0.12930
H1433       H  0.06789786  0.89941651  0.65060711     0.12940
C1434       C  0.05005347  0.87409613  0.63761796     0.62470
F1435       F  0.01010762  0.92801303  0.68116339    -0.22690
F1436       F  0.03187688  0.94293780  0.67344409    -0.20020
F1437       F  0.03336345  0.92640907  0.69564962    -0.19700
F1438       F  0.04070337  0.87367255  0.62344079    -0.19750
F1439       F  0.04882597  0.85916238  0.64559771    -0.20080
F1440       F  0.06632064  0.87627036  0.63311576    -0.22750
C1441       C  0.12935877  0.01387577  0.61566171    -0.05590
C1442       C  0.13120884  0.01828959  0.63235021     0.00340
C1443       C  0.13804191  0.03412787  0.63602058    -0.08230
C1444       C  0.14211239  0.04471696  0.62290541    -0.05610
C1445       C  0.13959582  0.04029535  0.60652840     0.00330
C1446       C  0.13329704  0.02462308  0.60272479    -0.08140
C1447       C  0.13095742  0.01925572  0.58500669     0.62240
H1448       H  0.12481279  0.00176393  0.61264052     0.12930
H1449       H  0.14744785  0.05669247  0.62527975     0.12940
C1450       C  0.14140676  0.04023594  0.65334214     0.62470
F1451       F  0.12542900  0.00320102  0.58386082    -0.22690
F1452       F  0.14573283  0.02034225  0.57665732    -0.20020
F1453       F  0.11952502  0.02930680  0.57747904    -0.19700
F1454       F  0.15424697  0.03136900  0.66004301    -0.19750
F1455       F  0.12743636  0.03884646  0.66292341    -0.20080
F1456       F  0.14601998  0.05662850  0.65360489    -0.22750
C1457       C  0.75898338  0.88883762  0.50986393    -0.05590
C1458       C  0.77099130  0.89498496  0.52044812     0.00340
C1459       C  0.76638605  0.90131570  0.53593890    -0.08230
C1460       C  0.74977716  0.90047885  0.54065433    -0.05610
C1461       C  0.73749740  0.89412322  0.53021368     0.00330
C1462       C  0.74224355  0.88836517  0.51426555    -0.08140
C1463       C  0.73023841  0.88168607  0.50161251     0.62240
H1464       H  0.76296819  0.88414220  0.49804900     0.12930
H1465       H  0.74632285  0.90483033  0.55273198     0.12940
C1466       C  0.77883054  0.90959518  0.54712909     0.62470
F1467       F  0.73726483  0.88065633  0.48613759    -0.22690
F1468       F  0.71670631  0.89187620  0.50026527    -0.20020
F1469       F  0.72550015  0.86597396  0.50600412    -0.19700
F1470       F  0.78696530  0.92183926  0.53857503    -0.19750
F1471       F  0.79011465  0.89822192  0.55271497    -0.20080
F1472       F  0.77142573  0.91673641  0.56069152    -0.22750
C1473       C  0.87480905  0.94031208  0.42770215    -0.05590
C1474       C  0.86890604  0.94592382  0.44285677     0.00340
C1475       C  0.86830580  0.96298680  0.44612408    -0.08230
C1476       C  0.87374675  0.97399857  0.43395794    -0.05610
C1477       C  0.87951107  0.96848588  0.41864596     0.00330
C1478       C  0.88010310  0.95128838  0.41539550    -0.08140
C1479       C  0.88651669  0.94432075  0.39927967     0.62240
H1480       H  0.87507802  0.92716258  0.42553979     0.12930
H1481       H  0.87346983  0.98711548  0.43629390     0.12940
C1482       C  0.86220182  0.96945594  0.46252359     0.62470
F1483       F  0.88934307  0.92756639  0.40032048    -0.22690
F1484       F  0.90120613  0.95174940  0.39502536    -0.20020
F1485       F  0.87507406  0.94681957  0.38701227    -0.19700
F1486       F  0.87155373  0.96288413  0.47508779    -0.19750
F1487       F  0.84594453  0.96505938  0.46475975    -0.20080
F1488       F  0.86323668  0.98641865  0.46346743    -0.22750
C1489       C  0.90877633  0.85725730  0.54694648    -0.05590
C1490       C  0.89705940  0.86918043  0.55102537     0.00340
C1491       C  0.89690341  0.87606149  0.56701390    -0.08230
C1492       C  0.90871426  0.87072882  0.57846633    -0.05610
C1493       C  0.92029657  0.85856477  0.57451209     0.00330
C1494       C  0.92038769  0.85165174  0.55846359    -0.08140
C1495       C  0.93286535  0.83875606  0.55324054     0.62240
H1496       H  0.90861657  0.85223120  0.53461420     0.12930
H1497       H  0.90891432  0.87592446  0.59072626     0.12940
C1498       C  0.88454003  0.88919803  0.57183172     0.62470
F1499       F  0.93245235  0.83595394  0.53646586    -0.22690
F1500       F  0.92951183  0.82402017  0.56096017    -0.20020
F1501       F  0.94857186  0.84385980  0.55725194    -0.19700
F1502       F  0.86886759  0.88265721  0.57172589    -0.19750
F1503       F  0.88530521  0.90214814  0.56085090    -0.20080
F1504       F  0.88752717  0.89534306  0.58741099    -0.22750
C1505       C  0.42116226  0.99975378  0.28452797    -0.05590
C1506       C  0.40614106  0.99492535  0.29140332     0.00340
C1507       C  0.39170688  0.99506799  0.28177202    -0.08230
C1508       C  0.39273871  0.00063488  0.26547393    -0.05610
C1509       C  0.40768686  0.00590998  0.25865566     0.00330
C1510       C  0.42226550  0.00522584  0.26819112    -0.08140
C1511       C  0.43899450  0.00964100  0.26114573     0.62240
H1512       H  0.43204527  0.99930364  0.29216892     0.12930
H1513       H  0.38182765  0.00090888  0.25786726     0.12940
C1514       C  0.37546871  0.98880823  0.28851583     0.62470
F1515       F  0.45163079  0.00524941  0.27164561    -0.22690
F1516       F  0.43996702  0.02639947  0.25864195    -0.20020
F1517       F  0.44146420  0.00151608  0.24641030    -0.19700
F1518       F  0.37017525  0.99886814  0.30114135    -0.19750
F1519       F  0.37743108  0.97297247  0.29439421    -0.20080
F1520       F  0.36334331  0.98851320  0.27660079    -0.22750
C1521       C  0.44941895  0.09647594  0.15280980    -0.05590
C1522       C  0.45560961  0.08163289  0.15886012     0.00340
C1523       C  0.47273958  0.07880278  0.15902871    -0.08230
C1524       C  0.48325650  0.09120618  0.15316414    -0.05610
C1525       C  0.47714997  0.10624415  0.14725614     0.00330
C1526       C  0.45987450  0.10894705  0.14695124    -0.08140
C1527       C  0.45226199  0.12459929  0.14018738     0.62240
H1528       H  0.43622162  0.09823932  0.15282382     0.12930
H1529       H  0.49642172  0.08924920  0.15314854     0.12940
C1530       C  0.47977882  0.06259494  0.16500698     0.62470
F1531       F  0.43549713  0.12292269  0.13780336    -0.22690
F1532       F  0.45922102  0.12855007  0.12519089    -0.20020
F1533       F  0.45462303  0.13734363  0.15115184    -0.19700
F1534       F  0.47326174  0.04980032  0.15589786    -0.19750
F1535       F  0.47589242  0.06033780  0.18138668    -0.20080
F1536       F  0.49671814  0.06206879  0.16347274    -0.22750
C1537       C  0.59434520  0.99718365  0.78590558    -0.05590
C1538       C  0.60957705  0.99152401  0.79152864     0.00340
C1539       C  0.62344252  0.99213578  0.78109389    -0.08230
C1540       C  0.62163182  0.99894031  0.76532241    -0.05610
C1541       C  0.60642273  0.00489194  0.75965920     0.00330
C1542       C  0.59241109  0.00381925  0.77006845    -0.08140
C1543       C  0.57537933  0.00919506  0.76464310     0.62240
H1544       H  0.58393593  0.99651225  0.79419061     0.12930
H1545       H  0.63214212  0.99953821  0.75716909     0.12940
C1546       C  0.63984361  0.98495306  0.78634939     0.62470
F1547       F  0.56331965  0.00373171  0.77534235    -0.22690
F1548       F  0.57181084  0.00288161  0.74927128    -0.20020
F1549       F  0.57459233  0.02614995  0.76426173    -0.19700
F1550       F  0.63778267  0.96863837  0.79069137    -0.19750
F1551       F  0.64596139  0.99355692  0.79964448    -0.20080
F1552       F  0.65140071  0.98565957  0.77387412    -0.22750
C1553       C  0.62955119  0.04588236  0.93448485    -0.05590
C1554       C  0.64526915  0.04428223  0.94156968     0.00340
C1555       C  0.65522142  0.03053750  0.93699906    -0.08230
C1556       C  0.64882419  0.01897884  0.92579188    -0.05610
C1557       C  0.63311052  0.02062365  0.91910767     0.00330
C1558       C  0.62329608  0.03427408  0.92332579    -0.08140
C1559       C  0.60627723  0.03646834  0.91602402     0.62240
H1560       H  0.62209786  0.05642132  0.93773397     0.12930
H1561       H  0.65613273  0.00850895  0.92197467     0.12940
C1562       C  0.67244296  0.02768518  0.94361681     0.62470
F1563       F  0.59851915  0.05039729  0.92199264    -0.22690
F1564       F  0.59661956  0.02300734  0.91983734    -0.20020
F1565       F  0.60745407  0.03788532  0.89913299    -0.19700
F1566       F  0.67267104  0.02934401  0.96052283    -0.19750
F1567       F  0.68317470  0.03872979  0.93645248    -0.20080
F1568       F  0.67812526  0.01204701  0.93998853    -0.22750
C1569       C  0.61004250  0.11921239  0.06166453    -0.05590
C1570       C  0.60845163  0.12433463  0.04529622     0.00340
C1571       C  0.59559765  0.13512532  0.04082703    -0.08230
C1572       C  0.58401940  0.13964882  0.05282617    -0.05610
C1573       C  0.58513867  0.13391910  0.06904475     0.00330
C1574       C  0.59862666  0.12397405  0.07376201    -0.08140
C1575       C  0.60136593  0.11903284  0.09154028     0.62240
H1576       H  0.62030377  0.11135951  0.06486243     0.12930
H1577       H  0.57385655  0.14761398  0.04959234     0.12940
C1578       C  0.59445430  0.14221014  0.02361992     0.62470
F1579       F  0.61625925  0.11107708  0.09366107    -0.22690
F1580       F  0.58906389  0.10851365  0.09664310    -0.20020
F1581       F  0.60136524  0.13289490  0.10140317    -0.19700
F1582       F  0.59117675  0.12981223  0.01248421    -0.19750
F1583       F  0.60915907  0.14970146  0.01950424    -0.20080
F1584       F  0.58211034  0.15385866  0.02238533    -0.22750
C1585       C  0.53360725  0.89249932  0.88403696    -0.05590
C1586       C  0.53016190  0.89210134  0.90084105     0.00340
C1587       C  0.53946071  0.90196327  0.91163384    -0.08230
C1588       C  0.55105650  0.91293676  0.90497803    -0.05610
C1589       C  0.55443562  0.91395648  0.88794103     0.00330
C1590       C  0.54568802  0.90294567  0.87726298    -0.08140
C1591       C  0.54854942  0.90171995  0.85885217     0.62240
H1592       H  0.52646474  0.88449280  0.87615155     0.12930
H1593       H  0.55746336  0.92087288  0.91340469     0.12940
C1594       C  0.53773301  0.90039473  0.93016987     0.62470
F1595       F  0.54056517  0.88834254  0.85197205    -0.22690
F1596       F  0.56511610  0.89971809  0.85559827    -0.20020
F1597       F  0.54242004  0.91560592  0.85122845    -0.19700
F1598       F  0.53924748  0.88407125  0.93470816    -0.19750
F1599       F  0.52259710  0.90624115  0.93514321    -0.20080
F1600       F  0.54969620  0.90921984  0.93844418    -0.22750
C1601       C  0.38245044  0.95853675  0.10542370    -0.05590
C1602       C  0.36777429  0.95008243  0.10873824     0.00340
C1603       C  0.35923509  0.95342287  0.12362464    -0.08230
C1604       C  0.36529848  0.96584751  0.13405377    -0.05610
C1605       C  0.37978204  0.97453524  0.13048467     0.00330
C1606       C  0.38889414  0.97037467  0.11620214    -0.08140
C1607       C  0.40564423  0.97772654  0.11239473     0.62240
H1608       H  0.38892991  0.95587775  0.09410391     0.12930
H1609       H  0.35866898  0.96891961  0.14519162     0.12940
C1610       C  0.34417602  0.94376147  0.12901875     0.62470
F1611       F  0.41406263  0.96846669  0.10084370    -0.22690
F1612       F  0.41523163  0.97824854  0.12641348    -0.20020
F1613       F  0.40377110  0.99337945  0.10611991    -0.19700
F1614       F  0.34651723  0.92713038  0.12632016    -0.19750
F1615       F  0.33052283  0.94909680  0.12049428    -0.20080
F1616       F  0.34101483  0.94585680  0.14561508    -0.22750
C1617       C  0.39517154  0.87226468  0.98567163    -0.05590
C1618       C  0.40045519  0.87255252  0.00215049     0.00340
C1619       C  0.41660695  0.86701182  0.00594220    -0.08230
C1620       C  0.42705572  0.86225240  0.99298292    -0.05610
C1621       C  0.42181436  0.86238814  0.97661987     0.00330
C1622       C  0.40555842  0.86707355  0.97283064    -0.08140
C1623       C  0.39921169  0.86620779  0.95532916     0.62240
H1624       H  0.38278881  0.87622827  0.98287391     0.12930
H1625       H  0.43953904  0.85838786  0.99552543     0.12940
C1626       C  0.42288690  0.86551152  0.02344728     0.62470
F1627       F  0.38276632  0.87046050  0.95432338    -0.22690
F1628       F  0.40093643  0.85034924  0.94940891    -0.20020
F1629       F  0.40808378  0.87682994  0.94547214    -0.19700
F1630       F  0.41107455  0.85841083  0.03340544    -0.19750
F1631       F  0.42700385  0.88085837  0.02942039    -0.20080
F1632       F  0.43680066  0.85574307  0.02426578    -0.22750
C1633       C  0.59150666  0.49037650  0.26608990    -0.05590
C1634       C  0.60510113  0.49366358  0.25592215     0.00340
C1635       C  0.61892284  0.50208396  0.26262596    -0.08230
C1636       C  0.61813820  0.50759866  0.27898916    -0.05610
C1637       C  0.60439186  0.50464192  0.28885525     0.00330
C1638       C  0.59098012  0.49561391  0.28255322    -0.08140
C1639       C  0.57639162  0.49125434  0.29333599     0.62240
H1640       H  0.58113409  0.48380028  0.26097234     0.12930
H1641       H  0.62833264  0.51436867  0.28425081     0.12940
C1642       C  0.63468042  0.50515893  0.25305375     0.62470
F1643       F  0.56502115  0.48166655  0.28507839    -0.22690
F1644       F  0.56858907  0.50543881  0.29851217    -0.20020
F1645       F  0.58173669  0.48254339  0.30691066    -0.19700
F1646       F  0.63283669  0.51889360  0.24325071    -0.19750
F1647       F  0.63868735  0.49168340  0.24347993    -0.20080
F1648       F  0.64780695  0.50800060  0.26349527    -0.22750
C1649       C  0.64518546  0.52954853  0.10404946    -0.05590
C1650       C  0.63851956  0.54545248  0.10498027     0.00340
C1651       C  0.62754196  0.54944530  0.11792928    -0.08230
C1652       C  0.62286312  0.53698018  0.12893417    -0.05610
C1653       C  0.62898058  0.52092916  0.12753689     0.00330
C1654       C  0.64071216  0.51717981  0.11526265    -0.08140
C1655       C  0.64895429  0.50045241  0.11445575     0.62240
H1656       H  0.65388951  0.52685296  0.09433435     0.12930
H1657       H  0.61418856  0.53963129  0.13869240     0.12940
C1658       C  0.62120387  0.56681696  0.12056837     0.62470
F1659       F  0.66111700  0.49993190  0.10255661    -0.22690
F1660       F  0.63750590  0.48847712  0.11075978    -0.20020
F1661       F  0.65612414  0.49691374  0.12944857    -0.19700
F1662       F  0.61007112  0.57082523  0.10842886    -0.19750
F1663       F  0.63414635  0.57784020  0.12025602    -0.20080
F1664       F  0.61334270  0.56846497  0.13558132    -0.22750
C1665       C  0.51195820  0.26247833  0.12104774    -0.05590
C1666       C  0.49487929  0.26511201  0.12077444     0.00340
C1667       C  0.48416801  0.25130905  0.12051330    -0.08230
C1668       C  0.49107570  0.23547513  0.11976782    -0.05610
C1669       C  0.50812474  0.23291220  0.11982346     0.00330
C1670       C  0.51882266  0.24661530  0.12089128    -0.08140
C1671       C  0.53732402  0.24468099  0.12258489     0.62240
H1672       H  0.52002560  0.27306301  0.12133807     0.12930
H1673       H  0.48309312  0.22483155  0.11909590     0.12940
C1674       C  0.46558073  0.25288484  0.12150794     0.62470
F1675       F  0.54481790  0.25932794  0.12695927    -0.22690
F1676       F  0.54402345  0.23965900  0.10782386    -0.20020
F1677       F  0.54091216  0.23325172  0.13464063    -0.19700
F1678       F  0.45940519  0.25745608  0.10638992    -0.19750
F1679       F  0.46117655  0.26436298  0.13326288    -0.20080
F1680       F  0.45827183  0.23812513  0.12582387    -0.22750
C1681       C  0.53620779  0.41418573  0.16748623    -0.05590
C1682       C  0.55119842  0.41458112  0.15890253     0.00340
C1683       C  0.55403042  0.40306525  0.14606307    -0.08230
C1684       C  0.54134999  0.39209186  0.14179861    -0.05610
C1685       C  0.52621085  0.39218767  0.14998944     0.00330
C1686       C  0.52362368  0.40309700  0.16325576    -0.08140
C1687       C  0.50775941  0.40271517  0.17305422     0.62240
H1688       H  0.53433485  0.42283825  0.17744257     0.12930
H1689       H  0.54308130  0.38339159  0.13185233     0.12940
C1690       C  0.57046117  0.40182241  0.13725607     0.62470
F1691       F  0.50813120  0.41354407  0.18618105    -0.22690
F1692       F  0.50521864  0.38705799  0.17918485    -0.20020
F1693       F  0.49471686  0.40697392  0.16305853    -0.19700
F1694       F  0.58308367  0.40111443  0.14860282    -0.19750
F1695       F  0.57269362  0.41524665  0.12713624    -0.20080
F1696       F  0.57139597  0.38784906  0.12756645    -0.22750
C1697       C  0.52043335  0.74348747  0.92166805    -0.05590
C1698       C  0.50838682  0.73127192  0.92301646     0.00340
C1699       C  0.49172864  0.73586819  0.92524109    -0.08230
C1700       C  0.48765833  0.75268150  0.92492111    -0.05610
C1701       C  0.49965855  0.76497683  0.92307168     0.00330
C1702       C  0.51648787  0.76031325  0.92197926    -0.08140
C1703       C  0.53050224  0.77266652  0.92163556     0.62240
H1704       H  0.53312553  0.73969267  0.92028846     0.12930
H1705       H  0.47492316  0.75636552  0.92609152     0.12940
C1706       C  0.47837361  0.72327746  0.92874178     0.62470
F1707       F  0.54530632  0.76540389  0.92583726    -0.22690
F1708       F  0.52771128  0.78522922  0.93275819    -0.20020
F1709       F  0.53216447  0.77902181  0.90599160    -0.19700
F1710       F  0.48335098  0.71284463  0.94120086    -0.19750
F1711       F  0.47508025  0.71422630  0.91477736    -0.20080
F1712       F  0.46386040  0.73067940  0.93368431    -0.22750
C1713       C  0.59864638  0.62410572  0.97033022    -0.05590
C1714       C  0.58578290  0.63425014  0.97573285     0.00340
C1715       C  0.58483855  0.63880983  0.99252905    -0.08230
C1716       C  0.59700830  0.63309944  0.00336453    -0.05610
C1717       C  0.61003377  0.62325088  0.99791264     0.00330
C1718       C  0.61095290  0.61857399  0.98115930    -0.08140
C1719       C  0.62458041  0.60746898  0.97484457     0.62240
H1720       H  0.59901873  0.62065000  0.95747718     0.12930
H1721       H  0.59651219  0.63634646  0.01626899     0.12940
C1722       C  0.57080413  0.64920940  0.99913740     0.62470
F1723       F  0.62205450  0.60288557  0.95865835    -0.22690
F1724       F  0.62533837  0.59331134  0.98422345    -0.20020
F1725       F  0.63947171  0.61558315  0.97569456    -0.19700
F1726       F  0.55591935  0.64226625  0.99476623    -0.19750
F1727       F  0.57178917  0.66493396  0.99282316    -0.20080
F1728       F  0.57122419  0.65041713  0.01610035    -0.22750
C1729       C  0.41813815  0.35596886  0.05648094    -0.05590
C1730       C  0.41941186  0.36531930  0.07098403     0.00340
C1731       C  0.40858202  0.37883827  0.07340417    -0.08230
C1732       C  0.39771087  0.38313454  0.06066221    -0.05610
C1733       C  0.39695133  0.37408237  0.04605235     0.00330
C1734       C  0.40684782  0.35998892  0.04405655    -0.08140
C1735       C  0.40512201  0.34911675  0.02900170     0.62240
H1736       H  0.42615410  0.34545821  0.05488458     0.12930
H1737       H  0.38967358  0.39368065  0.06199831     0.12940
C1738       C  0.40791539  0.38847545  0.08938818     0.62470
F1739       F  0.41558825  0.33571088  0.02957149    -0.22690
F1740       F  0.40869748  0.35805435  0.01500653    -0.20020
F1741       F  0.38916916  0.34331314  0.02800845    -0.19700
F1742       F  0.42093188  0.39933876  0.09010519    -0.19750
F1743       F  0.40848849  0.37792592  0.10270198    -0.20080
F1744       F  0.39353774  0.39750347  0.09065165    -0.22750
C1745       C  0.41720150  0.50372622  0.78328129    -0.05590
C1746       C  0.40144845  0.50649017  0.78971228     0.00340
C1747       C  0.38743329  0.50340167  0.77988499    -0.08230
C1748       C  0.38974667  0.49705249  0.76398670    -0.05610
C1749       C  0.40549288  0.49394575  0.75765343     0.00330
C1750       C  0.41953059  0.49757631  0.76729891    -0.08140
C1751       C  0.43687393  0.49558056  0.76066496     0.62240
H1752       H  0.42772633  0.50634050  0.79099190     0.12930
H1753       H  0.37921373  0.49457783  0.75624178     0.12940
C1754       C  0.37019729  0.50755923  0.78577872     0.62470
F1755       F  0.44845077  0.50239543  0.77109917    -0.22690
F1756       F  0.43829867  0.50332864  0.74560383    -0.20020
F1757       F  0.44051247  0.47908825  0.75892191    -0.19700
F1758       F  0.36964182  0.52375978  0.79094133    -0.19750
F1759       F  0.36579133  0.49741065  0.79863847    -0.20080
F1760       F  0.35864624  0.50559271  0.77345331    -0.22750
C1761       C  0.48282280  0.59025441  0.89240061    -0.05590
C1762       C  0.47782820  0.60615861  0.89695016     0.00340
C1763       C  0.46078495  0.61017918  0.89668342    -0.08230
C1764       C  0.44947517  0.59805545  0.89168672    -0.05610
C1765       C  0.45459661  0.58229941  0.88707612     0.00330
C1766       C  0.47146553  0.57823478  0.88738346    -0.08140
C1767       C  0.47734317  0.56120240  0.88253708     0.62240
H1768       H  0.49579975  0.58732113  0.89274585     0.12930
H1769       H  0.43645608  0.60080186  0.89123658     0.12940
C1770       C  0.45426223  0.62691008  0.90188285     0.62470
F1771       F  0.49423210  0.55967690  0.88387935    -0.22690
F1772       F  0.47304330  0.55800831  0.86641684    -0.20020
F1773       F  0.47015168  0.54958337  0.89264486    -0.19700
F1774       F  0.45748248  0.63833168  0.88975308    -0.19750
F1775       F  0.46144553  0.63183482  0.91647279    -0.20080
F1776       F  0.43741985  0.62662018  0.90432724    -0.22750
C1777       C  0.36566271  0.48053507  0.92871332    -0.05590
C1778       C  0.37640663  0.47535695  0.91629181     0.00340
C1779       C  0.38165212  0.45874734  0.91573850    -0.08230
C1780       C  0.37582809  0.44781237  0.92780217    -0.05610
C1781       C  0.36484954  0.45291249  0.94008531     0.00330
C1782       C  0.35963826  0.46955949  0.94063696    -0.08140
C1783       C  0.34816059  0.47590764  0.95394033     0.62240
H1784       H  0.36191469  0.49332136  0.92889290     0.12930
H1785       H  0.37977003  0.43508494  0.92772500     0.12940
C1786       C  0.39372320  0.45269365  0.90282611     0.62470
F1787       F  0.34690824  0.49288091  0.95366663    -0.22690
F1788       F  0.35391378  0.47138063  0.96926988    -0.20020
F1789       F  0.33260001  0.46954032  0.95162612    -0.19700
F1790       F  0.40755782  0.46257717  0.90274917    -0.19750
F1791       F  0.38646329  0.45306724  0.88749811    -0.20080
F1792       F  0.39871763  0.43669967  0.90579854    -0.22750
C1793       C  0.25771579  0.39630147  0.00693712    -0.05590
C1794       C  0.27001555  0.39811062  0.01883102     0.00340
C1795       C  0.26558331  0.40034991  0.03553334    -0.08230
C1796       C  0.24888268  0.39949826  0.03982428    -0.05610
C1797       C  0.23655668  0.39720085  0.02799251     0.00330
C1798       C  0.24096495  0.39613854  0.01112294    -0.08140
C1799       C  0.22834542  0.39543748  0.99737597     0.62240
H1800       H  0.26137706  0.39496857  0.99420035     0.12930
H1801       H  0.24529249  0.40068163  0.05259007     0.12940
C1802       C  0.27815980  0.40451023  0.04869893     0.62470
F1803       F  0.23526837  0.39942275  0.98234819    -0.22690
F1804       F  0.21576248  0.40651403  0.00025790    -0.20020
F1805       F  0.22203899  0.37972250  0.99614800    -0.19700
F1806       F  0.28825281  0.41710650  0.04333838    -0.19750
F1807       F  0.28754769  0.39085504  0.05231440    -0.20080
F1808       F  0.27071831  0.40965437  0.06312245    -0.22750
C1809       C  0.12371193  0.45681817  0.10420755    -0.05590
C1810       C  0.13932414  0.44982031  0.10661984     0.00340
C1811       C  0.14853982  0.45441726  0.12075778    -0.08230
C1812       C  0.14211744  0.46660443  0.13125500    -0.05610
C1813       C  0.12670836  0.47382651  0.12852836     0.00330
C1814       C  0.11702931  0.46843128  0.11512123    -0.08140
C1815       C  0.09944407  0.47420452  0.11265680     0.62240
H1816       H  0.11668206  0.45317997  0.09352674     0.12930
H1817       H  0.14916060  0.47061334  0.14181673     0.12940
C1818       C  0.16480480  0.44645029  0.12533675     0.62470
F1819       F  0.09133992  0.46488325  0.10095344    -0.22690
F1820       F  0.09931851  0.49034733  0.10744402    -0.20020
F1821       F  0.09076160  0.47285719  0.12722067    -0.19700
F1822       F  0.17736454  0.45340584  0.11627371    -0.19750
F1823       F  0.16428756  0.42967522  0.12257850    -0.20080
F1824       F  0.16840581  0.44875891  0.14180960    -0.22750
C1825       C  0.75750633  0.59906594  0.00580768    -0.05590
C1826       C  0.76985644  0.59869544  0.01779957     0.00340
C1827       C  0.76542907  0.59738274  0.03462025    -0.08230
C1828       C  0.74866554  0.59749864  0.03880957    -0.05610
C1829       C  0.73629772  0.59838374  0.02684705     0.00330
C1830       C  0.74073679  0.59866403  0.00995975    -0.08140
C1831       C  0.72811309  0.59787456  0.99622036     0.62240
H1832       H  0.76114147  0.59972894  0.99301575     0.12930
H1833       H  0.74506210  0.59698869  0.05161595     0.12940
C1834       C  0.77809830  0.59525620  0.04816708     0.62470
F1835       F  0.73529874  0.59378111  0.98133858    -0.22690
F1836       F  0.72065519  0.61300347  0.99435628    -0.20020
F1837       F  0.71637390  0.58605318  0.99963512    -0.19700
F1838       F  0.78575029  0.61008306  0.05128580    -0.19750
F1839       F  0.78969060  0.58365133  0.04365200    -0.20080
F1840       F  0.77093436  0.58996506  0.06266789    -0.22750
C1841       C  0.91679916  0.64384968  0.05594851    -0.05590
C1842       C  0.92068244  0.63276915  0.06868495     0.00340
C1843       C  0.91213547  0.61744591  0.06944029    -0.08230
C1844       C  0.90091869  0.61356644  0.05686597    -0.05610
C1845       C  0.89740921  0.62460209  0.04420633     0.00330
C1846       C  0.90507789  0.64011356  0.04384704    -0.08140
C1847       C  0.90081500  0.65257343  0.03065645     0.62240
H1848       H  0.92318447  0.65549935  0.05533229     0.12930
H1849       H  0.89468859  0.60178181  0.05683527     0.12940
C1850       C  0.91426539  0.60507374  0.08326606     0.62470
F1851       F  0.90943221  0.66711970  0.03258682    -0.22690
F1852       F  0.88421161  0.65616346  0.03136635    -0.20020
F1853       F  0.90450442  0.64617059  0.01534586    -0.19700
F1854       F  0.91545441  0.61294347  0.09828586    -0.19750
F1855       F  0.92811999  0.59566437  0.08042667    -0.20080
F1856       F  0.90097698  0.59447217  0.08421942    -0.22750
C1857       C  0.03005472  0.60269597  0.16325072    -0.05590
C1858       C  0.02714778  0.60296479  0.14634354     0.00340
C1859       C  0.03612845  0.59236040  0.13595064    -0.08230
C1860       C  0.04686789  0.58090117  0.14311068    -0.05610
C1861       C  0.04984942  0.58023652  0.16020502     0.00330
C1862       C  0.04138434  0.59178904  0.17049576    -0.08140
C1863       C  0.04375146  0.59305822  0.18897028     0.62240
H1864       H  0.02308826  0.61115026  0.17084134     0.12930
H1865       H  0.05292492  0.57226294  0.13507563     0.12940
C1866       C  0.03511095  0.59364400  0.11733138     0.62470
F1867       F  0.03676695  0.60722276  0.19536502    -0.22690
F1868       F  0.06029944  0.59357239  0.19278208    -0.20020
F1869       F  0.03615620  0.57990076  0.19657398    -0.19700
F1870       F  0.03733892  0.60981639  0.11254844    -0.19750
F1871       F  0.02000795  0.58817347  0.11190209    -0.20080
F1872       F  0.04707601  0.58428341  0.10964439    -0.22750
C1873       C  0.88346576  0.52115618  0.93184623    -0.05590
C1874       C  0.87578578  0.52100311  0.91638162     0.00340
C1875       C  0.86306892  0.53266226  0.91317669    -0.08230
C1876       C  0.85928375  0.54439364  0.92533977    -0.05610
C1877       C  0.86730154  0.54467005  0.94055300     0.00330
C1878       C  0.87927348  0.53255677  0.94411625    -0.08140
C1879       C  0.88736895  0.53120707  0.96087789     0.62240
H1880       H  0.89315402  0.51238376  0.93426631     0.12930
H1881       H  0.85000699  0.55365454  0.92298165     0.12940
C1882       C  0.85320528  0.53309565  0.89731568     0.62470
F1883       F  0.89555246  0.51639800  0.96272682    -0.22690
F1884       F  0.87564684  0.53216700  0.97316561    -0.20020
F1885       F  0.89870485  0.54368514  0.96281922    -0.19700
F1886       F  0.84945978  0.51736168  0.89207056    -0.19750
F1887       F  0.86199901  0.54132064  0.88533708    -0.20080
F1888       F  0.83845269  0.54134076  0.89940852    -0.22750
C1889       C  0.09844959  0.35242743  0.97996700    -0.05590
C1890       C  0.08662448  0.36411581  0.97515285     0.00340
C1891       C  0.08674518  0.37984586  0.98295164    -0.08230
C1892       C  0.09863266  0.38302046  0.99512403    -0.05610
C1893       C  0.11023746  0.37125535  0.99994006     0.00330
C1894       C  0.11009738  0.35555898  0.99235204    -0.08140
C1895       C  0.12170904  0.34184719  0.99749956     0.62240
H1896       H  0.09857582  0.34059567  0.97386581     0.12930
H1897       H  0.09910727  0.39499124  0.00095455     0.12940
C1898       C  0.07462799  0.39345715  0.97886413     0.62470
F1899       F  0.11658569  0.32670771  0.99163605    -0.22690
F1900       F  0.12243546  0.34078233  0.01444727    -0.20020
F1901       F  0.13722549  0.34478732  0.99127929    -0.19700
F1902       F  0.05873421  0.38744556  0.97876819    -0.19750
F1903       F  0.07855229  0.40016266  0.96376816    -0.20080
F1904       F  0.07513216  0.40609004  0.99027052    -0.22750
C1905       C  0.95768372  0.41138120  0.90292288    -0.05590
C1906       C  0.95504046  0.41328877  0.88582043     0.00340
C1907       C  0.96471389  0.40321595  0.87495074    -0.08230
C1908       C  0.97663898  0.39259519  0.88169545    -0.05610
C1909       C  0.97930659  0.39136397  0.89855803     0.00330
C1910       C  0.96947817  0.40054990  0.90945733    -0.08140
C1911       C  0.97103986  0.39844262  0.92794815     0.62240
H1912       H  0.95040716  0.41835106  0.91150148     0.12930
H1913       H  0.98423564  0.38503064  0.87378483     0.12940
C1914       C  0.96293997  0.40309130  0.85637517     0.62470
F1915       F  0.95928569  0.40736457  0.93643673    -0.22690
F1916       F  0.98632425  0.40373193  0.93309603    -0.20020
F1917       F  0.96911003  0.38204028  0.93201641    -0.19700
F1918       F  0.96716411  0.41832151  0.85012679    -0.19750
F1919       F  0.94703642  0.39882528  0.85217381    -0.20080
F1920       F  0.97317495  0.39169903  0.84890841    -0.22750
C1921       C  0.75684124  0.39783359  0.53884272    -0.05590
C1922       C  0.76943248  0.39446557  0.52750824     0.00340
C1923       C  0.76522132  0.39143014  0.51077071    -0.08230
C1924       C  0.74850936  0.39112649  0.50636937    -0.05610
C1925       C  0.73602045  0.39420020  0.51779763     0.00330
C1926       C  0.74019098  0.39807211  0.53425197    -0.08140
C1927       C  0.72732412  0.40325604  0.54677602     0.62240
H1928       H  0.76016164  0.40031281  0.55148288     0.12930
H1929       H  0.74500678  0.38843103  0.49381075     0.12940
C1930       C  0.77790421  0.38891714  0.49725302     0.62470
F1931       F  0.73441782  0.40947233  0.56093128    -0.22690
F1932       F  0.71779922  0.38993135  0.55120134    -0.20020
F1933       F  0.71741099  0.41541168  0.54022136    -0.19700
F1934       F  0.78374189  0.37297425  0.49774506    -0.19750
F1935       F  0.79075699  0.39991671  0.49892765    -0.20080
F1936       F  0.77117238  0.39141080  0.48183448    -0.22750
C1937       C  0.98753489  0.25044387  0.42403825    -0.05590
C1938       C  0.99944741  0.26249191  0.42689797     0.00340
C1939       C  0.01584323  0.25779403  0.43024768    -0.08230
C1940       C  0.01989780  0.24099248  0.42977944    -0.05610
C1941       C  0.00806250  0.22881009  0.42655941     0.00330
C1942       C  0.99140496  0.23360163  0.42401999    -0.08140
C1943       C  0.97745129  0.22139234  0.42167035     0.62240
H1944       H  0.97504043  0.25440862  0.42170554     0.12930
H1945       H  0.03247166  0.23723272  0.43194683     0.12940
C1946       C  0.02882093  0.27033582  0.43505045     0.62470
F1947       F  0.96229012  0.22862506  0.42443979    -0.22690
F1948       F  0.97888598  0.20843813  0.43257182    -0.20020
F1949       F  0.97753534  0.21561377  0.40570698    -0.19700
F1950       F  0.02311342  0.27986771  0.44793684    -0.19750
F1951       F  0.03244841  0.28034278  0.42183980    -0.20080
F1952       F  0.04327188  0.26288689  0.44005369    -0.22750
C1953       C  0.90704179  0.35164359  0.47857206    -0.05590
C1954       C  0.92122686  0.36136375  0.47716892     0.00340
C1955       C  0.92327023  0.37496766  0.48791475    -0.08230
C1956       C  0.91059107  0.37875298  0.49903952    -0.05610
C1957       C  0.89635700  0.36907922  0.50047719     0.00330
C1958       C  0.89467561  0.35497501  0.49023221    -0.08140
C1959       C  0.88035638  0.34302960  0.49157048     0.62240
H1960       H  0.90572478  0.34121253  0.47038364     0.12930
H1961       H  0.91177631  0.38951619  0.50678494     0.12940
C1962       C  0.93888082  0.38522447  0.48834905     0.62470
F1963       F  0.88398161  0.32808006  0.48426083    -0.22690
F1964       F  0.86678319  0.34944243  0.48366079    -0.20020
F1965       F  0.87664600  0.33989368  0.50785818    -0.19700
F1966       F  0.93916694  0.39583585  0.47511854    -0.19750
F1967       F  0.95259473  0.37517527  0.48800453    -0.20080
F1968       F  0.93982456  0.39462078  0.50251051    -0.22750
C1969       C  0.23989618  0.59500313  0.53188419    -0.05590
C1970       C  0.23742454  0.59595701  0.51483746     0.00340
C1971       C  0.25119751  0.59695306  0.50420659    -0.08230
C1972       C  0.26699651  0.59605545  0.51110182    -0.05610
C1973       C  0.26945802  0.59480208  0.52813734     0.00330
C1974       C  0.25568884  0.59473546  0.53881312    -0.08140
C1975       C  0.25741036  0.59502149  0.55740073     0.62240
H1976       H  0.22924006  0.59441358  0.53984654     0.12930
H1977       H  0.27766649  0.59634557  0.50314071     0.12940
C1978       C  0.24945686  0.59970979  0.48581788     0.62470
F1979       F  0.24271848  0.59902409  0.56502534    -0.22690
F1980       F  0.26892024  0.60663266  0.56207276    -0.20020
F1981       F  0.26214472  0.57970890  0.56296479    -0.19700
F1982       F  0.23859997  0.61245331  0.48284595    -0.19750
F1983       F  0.24384732  0.58556426  0.47831439    -0.20080
F1984       F  0.26432663  0.60380912  0.47861268    -0.22750
C1985       C  0.01273360  0.75922461  0.63325756    -0.05590
C1986       C  0.99663051  0.76197511  0.62736339     0.00340
C1987       C  0.98737765  0.74807543  0.62177067    -0.08230
C1988       C  0.99468583  0.73238360  0.62239674    -0.05610
C1989       C  0.01056864  0.72993159  0.62840599     0.00330
C1990       C  0.01972247  0.74344366  0.63419837    -0.08140
C1991       C  0.03650190  0.74109195  0.64201626     0.62240
H1992       H  0.02005509  0.76957024  0.63719423     0.12930
H1993       H  0.98806400  0.72170100  0.61797905     0.12940
C1994       C  0.97001588  0.74916927  0.61499017     0.62470
F1995       F  0.04268192  0.75563911  0.64833839    -0.22690
F1996       F  0.04752894  0.73526568  0.63048543    -0.20020
F1997       F  0.03531280  0.72992157  0.65477561    -0.19700
F1998       F  0.97043312  0.75614824  0.59951564    -0.19750
F1999       F  0.96010421  0.75820963  0.62543621    -0.20080
F2000       F  0.96281945  0.73382343  0.61334258    -0.22750
C2001       C  0.10176527  0.63949939  0.57280257    -0.05590
C2002       C  0.08625413  0.63207874  0.57240549     0.00340
C2003       C  0.08273533  0.62038707  0.56001525    -0.08230
C2004       C  0.09533092  0.61575926  0.54914141    -0.05610
C2005       C  0.11105030  0.62302621  0.54941763     0.00330
C2006       C  0.11423400  0.63547525  0.56143685    -0.08140
C2007       C  0.13038951  0.64477579  0.56270512     0.62240
H2008       H  0.10407674  0.64852896  0.58232347     0.12930
H2009       H  0.09280620  0.60617802  0.54029230     0.12940
C2010       C  0.06560159  0.61332355  0.55758477     0.62470
F2011       F  0.12888999  0.65876120  0.57231346    -0.22690
F2012       F  0.13561252  0.64983848  0.54734885    -0.20020
F2013       F  0.14208984  0.63487123  0.57000395    -0.19700
F2014       F  0.05403726  0.62579180  0.55799715    -0.19750
F2015       F  0.06218318  0.60198216  0.56971995    -0.20080
F2016       F  0.06411342  0.60542864  0.54258237    -0.22750
C2017       C  0.08697210  0.49939456  0.26507933    -0.05590
C2018       C  0.10229740  0.50174397  0.25756622     0.00340
C2019       C  0.11689282  0.49888646  0.26656198    -0.08230
C2020       C  0.11557179  0.49289291  0.28269181    -0.05610
C2021       C  0.10024244  0.48997126  0.29004334     0.00330
C2022       C  0.08563193  0.49365486  0.28130499    -0.08140
C2023       C  0.06873202  0.49211325  0.28910285     0.62240
H2024       H  0.07599473  0.50192292  0.25800125     0.12930
H2025       H  0.12656742  0.49045716  0.28977251     0.12940
C2026       C  0.13371549  0.50288658  0.25950333     0.62470
F2027       F  0.05663874  0.49911252  0.27940376    -0.22690
F2028       F  0.06849649  0.50002578  0.30415337    -0.20020
F2029       F  0.06483862  0.47573075  0.29123036    -0.19700
F2030       F  0.13398106  0.51902817  0.25416206    -0.19750
F2031       F  0.13721507  0.49258742  0.24647099    -0.20080
F2032       F  0.14604692  0.50099819  0.27105975    -0.22750
C2033       C  0.02256976  0.40468043  0.39567115    -0.05590
C2034       C  0.02810440  0.38844818  0.39804086     0.00340
C2035       C  0.04514327  0.38489910  0.39571337    -0.08230
C2036       C  0.05575863  0.39779132  0.39108215    -0.05610
C2037       C  0.05008240  0.41387232  0.38899583     0.00330
C2038       C  0.03328296  0.41747648  0.39125485    -0.08140
C2039       C  0.02675421  0.43479809  0.38891246     0.62240
H2040       H  0.00963493  0.40733325  0.39726976     0.12930
H2041       H  0.06869097  0.39542713  0.38896118     0.12940
C2042       C  0.05249302  0.36788580  0.39808550     0.62470
F2043       F  0.00995459  0.43568148  0.39146681    -0.22690
F2044       F  0.02998594  0.44003612  0.37307410    -0.20020
F2045       F  0.03429851  0.44531237  0.39992524    -0.19700
F2046       F  0.04830870  0.35797483  0.38494757    -0.19750
F2047       F  0.04700703  0.36099688  0.41261807    -0.20080
F2048       F  0.06948994  0.36840121  0.39881882    -0.22750
C2049       C  0.12974260  0.51770799  0.43229895    -0.05590
C2050       C  0.12746556  0.52300309  0.41598205     0.00340
C2051       C  0.13039450  0.53989733  0.41210902    -0.08230
C2052       C  0.13510192  0.55066335  0.42484483    -0.05610
C2053       C  0.13709082  0.54522561  0.44099376     0.00330
C2054       C  0.13457101  0.52852464  0.44486477    -0.08140
C2055       C  0.13700558  0.52224099  0.46224784     0.62240
H2056       H  0.12781812  0.50486229  0.43519081     0.12930
H2057       H  0.13752838  0.56350983  0.42228068     0.12940
C2058       C  0.12878851  0.54692295  0.39488284     0.62470
F2059       F  0.13348118  0.50564470  0.46357906    -0.22690
F2060       F  0.12677937  0.53069171  0.47288985    -0.20020
F2061       F  0.15315687  0.52460489  0.46695851    -0.19700
F2062       F  0.11412196  0.54208228  0.38781298    -0.19750
F2063       F  0.14190575  0.54175392  0.38539930    -0.20080
F2064       F  0.12900441  0.56395018  0.39493356    -0.22750
C2065       C  0.88733966  0.50189399  0.76491740    -0.05590
C2066       C  0.90257518  0.50230898  0.75689535     0.00340
C2067       C  0.91675041  0.49614418  0.76484250    -0.08230
C2068       C  0.91525900  0.49034277  0.78102347    -0.05610
C2069       C  0.90012176  0.49042919  0.78927254     0.00330
C2070       C  0.88579628  0.49597474  0.78106205    -0.08140
C2071       C  0.86887659  0.49501714  0.78893962     0.62240
H2072       H  0.87662171  0.50628836  0.75837178     0.12930
H2073       H  0.92599474  0.48586587  0.78747906     0.12940
C2074       C  0.93323497  0.49521770  0.75613421     0.62470
F2075       F  0.85651471  0.49851105  0.77779680    -0.22690
F2076       F  0.86766764  0.50621471  0.80163799    -0.20020
F2077       F  0.86619313  0.47933999  0.79494962    -0.19700
F2078       F  0.93902379  0.51088554  0.75307693    -0.19750
F2079       F  0.93153611  0.48685467  0.74142627    -0.20080
F2080       F  0.94487927  0.48704887  0.76545583    -0.22750
C2081       C  0.97080946  0.57362567  0.65738076    -0.05590
C2082       C  0.95488665  0.57957654  0.65981325     0.00340
C2083       C  0.95154860  0.59643646  0.65765998    -0.08230
C2084       C  0.96431248  0.60682069  0.65235121    -0.05610
C2085       C  0.98043683  0.60099571  0.64973670     0.00330
C2086       C  0.98384273  0.58404254  0.65277164    -0.08140
C2087       C  0.00092519  0.57658132  0.65157816     0.62240
H2088       H  0.97297350  0.56060600  0.65923482     0.12930
H2089       H  0.96165980  0.61966246  0.65013760     0.12940
C2090       C  0.93456422  0.60333589  0.66109892     0.62470
F2091       F  0.00188301  0.56184520  0.66004201    -0.22690
F2092       F  0.01252951  0.58700130  0.65833144    -0.20020
F2093       F  0.00465278  0.57337940  0.63532390    -0.19700
F2094       F  0.93052634  0.60065923  0.67739163    -0.19750
F2095       F  0.92312180  0.59562022  0.65118790    -0.20080
F2096       F  0.93376220  0.62007989  0.65815161    -0.22750
C2097       C  0.88859908  0.46483293  0.62156228    -0.05590
C2098       C  0.87613939  0.47332918  0.62972818     0.00340
C2099       C  0.85959373  0.46919254  0.62674058    -0.08230
C2100       C  0.85609862  0.45649231  0.61550696    -0.05610
C2101       C  0.86850096  0.44795482  0.60676027     0.00330
C2102       C  0.88528975  0.45210463  0.61026488    -0.08140
C2103       C  0.89998946  0.44342218  0.60270191     0.62240
H2104       H  0.90114673  0.46823198  0.62440245     0.12930
H2105       H  0.84340237  0.45321757  0.61361961     0.12940
C2106       C  0.84567168  0.47862001  0.63490397     0.62470
F2107       F  0.91478951  0.45026090  0.60759420    -0.22690
F2108       F  0.89937839  0.44458430  0.58576856    -0.20020
F2109       F  0.90017873  0.42719333  0.60775015    -0.19700
F2110       F  0.84736712  0.49523611  0.63169166    -0.19750
F2111       F  0.84599975  0.47612510  0.65168695    -0.20080
F2112       F  0.83042355  0.47369292  0.62919865    -0.22750
C2113       C  0.02015328  0.75193362  0.12456675    -0.05590
C2114       C  0.00848150  0.76404075  0.12106506     0.00340
C2115       C  0.99214845  0.75943011  0.11727245    -0.08230
C2116       C  0.98785726  0.74273794  0.11825071    -0.05610
C2117       C  0.99942105  0.73047246  0.12209845     0.00330
C2118       C  0.01609780  0.73513671  0.12486167    -0.08140
C2119       C  0.02990313  0.72290643  0.12783807     0.62240
H2120       H  0.03261017  0.75581943  0.12721963     0.12930
H2121       H  0.97524502  0.73916917  0.11601347     0.12940
C2122       C  0.97945683  0.77183189  0.11140075     0.62470
F2123       F  0.04517609  0.72994587  0.12518196    -0.22690
F2124       F  0.02861377  0.70966106  0.11725590    -0.20020
F2125       F  0.02945526  0.71763048  0.14396276    -0.19700
F2126       F  0.98604777  0.78142572  0.09900311    -0.19750
F2127       F  0.97455485  0.78177619  0.12424952    -0.20080
F2128       F  0.96557578  0.76418967  0.10520814    -0.22750
C2129       C  0.90992006  0.98088614  0.27029835    -0.05590
C2130       C  0.90224185  0.99135318  0.25875962     0.00340
C2131       C  0.89569040  0.00667795  0.26456379    -0.08230
C2132       C  0.89712534  0.01054995  0.28136992    -0.05610
C2133       C  0.90479770  0.00004538  0.29249518     0.00330
C2134       C  0.91165025  0.98512746  0.28695743    -0.08140
C2135       C  0.92140192  0.97412560  0.29846428     0.62240
H2136       H  0.91468214  0.96915952  0.26628075     0.12930
H2137       H  0.89199866  0.02187846  0.28616909     0.12940
C2138       C  0.88703385  0.01915224  0.25370905     0.62470
F2139       F  0.92842283  0.96094890  0.29027964    -0.22690
F2140       F  0.91127747  0.96795466  0.31061602    -0.20020
F2141       F  0.93392859  0.98311119  0.30564173    -0.19700
F2142       F  0.87198130  0.01293340  0.24887854    -0.19750
F2143       F  0.89669656  0.02296539  0.24025759    -0.20080
F2144       F  0.88395058  0.03377988  0.26187568    -0.22750
C2145       C  0.95480809  0.89908589  0.16568604    -0.05590
C2146       C  0.95527968  0.91476123  0.15869219     0.00340
C2147       C  0.96755488  0.91855008  0.14701424    -0.08230
C2148       C  0.97841597  0.90607582  0.14202337    -0.05610
C2149       C  0.97808354  0.89014738  0.14884502     0.00330
C2150       C  0.96604065  0.88665544  0.16122540    -0.08140
C2151       C  0.96453628  0.87021161  0.16998680     0.62240
H2152       H  0.94531987  0.89663481  0.17470574     0.12930
H2153       H  0.98728336  0.90885612  0.13254511     0.12940
C2154       C  0.96976158  0.93588020  0.14039976     0.62470
F2155       F  0.95476617  0.87131287  0.18389150    -0.22690
F2156       F  0.97979070  0.86473215  0.17507146    -0.20020
F2157       F  0.95723915  0.85887963  0.15964198    -0.19700
F2158       F  0.97050978  0.94693195  0.15331064    -0.19750
F2159       F  0.95679055  0.93993336  0.13026261    -0.20080
F2160       F  0.98411620  0.93745105  0.13138911    -0.22750
C2161       C  0.10376547  0.00710690  0.76191573    -0.05590
C2162       C  0.10539048  0.99005614  0.75992819     0.00340
C2163       C  0.10727968  0.97995196  0.77394097    -0.08230
C2164       C  0.10651482  0.98726932  0.78955680    -0.05610
C2165       C  0.10469078  0.00434326  0.79168778     0.00330
C2166       C  0.10363213  0.01456255  0.77753626    -0.08140
C2167       C  0.10272235  0.03320319  0.77848277     0.62240
H2168       H  0.10249863  0.01461409  0.75100292     0.12930
H2169       H  0.10733395  0.97953558  0.80033275     0.12940
C2170       C  0.11092982  0.96167546  0.77254976     0.62470
F2171       F  0.10646434  0.04041202  0.76352659    -0.22690
F2172       F  0.11382540  0.03916262  0.78988039    -0.20020
F2173       F  0.08698037  0.03796937  0.78269435    -0.19700
F2174       F  0.12378730  0.95914469  0.76170292    -0.19750
F2175       F  0.09719036  0.95337143  0.76708278    -0.20080
F2176       F  0.11540456  0.95497054  0.78752598    -0.22750
C2177       C  0.25051501  0.90085406  0.00980768    -0.05590
C2178       C  0.23836508  0.89725538  0.02157292     0.00340
C2179       C  0.24319277  0.89414886  0.03810558    -0.08230
C2180       C  0.26005871  0.89382466  0.04185492    -0.05610
C2181       C  0.27206646  0.89706230  0.02997039     0.00330
C2182       C  0.26729949  0.90121597  0.01380167    -0.08140
C2183       C  0.27973617  0.90686440  0.00106094     0.62240
H2184       H  0.24675213  0.90347936  0.99733238     0.12930
H2185       H  0.26406020  0.89105582  0.05424100     0.12940
C2186       C  0.23099680  0.89167188  0.05205338     0.62470
F2187       F  0.27218859  0.91258334  0.98693988    -0.22690
F2188       F  0.28987781  0.89397431  0.99668327    -0.20020
F2189       F  0.28912576  0.91954060  0.00742464    -0.19700
F2190       F  0.22497503  0.87580008  0.05164364    -0.19750
F2191       F  0.21819895  0.90280469  0.05090631    -0.20080
F2192       F  0.23831686  0.89400695  0.06723224    -0.22750
C2193       C  0.13383286  0.96504999  0.94898718    -0.05590
C2194       C  0.14240144  0.95152684  0.94287304     0.00340
C2195       C  0.14591239  0.95053324  0.92596409    -0.08230
C2196       C  0.14079955  0.96345368  0.91566652    -0.05610
C2197       C  0.13184030  0.97721858  0.92150750     0.00330
C2198       C  0.12849179  0.97801090  0.93883034    -0.08140
C2199       C  0.11957133  0.99213382  0.94718227     0.62240
H2200       H  0.13149276  0.96534658  0.96208532     0.12930
H2201       H  0.14393621  0.96264261  0.90283659     0.12940
C2202       C  0.15446583  0.93555860  0.91876291     0.62470
F2203       F  0.11774980  0.98971310  0.96393028    -0.22690
F2204       F  0.10392836  0.99369512  0.94074983    -0.20020
F2205       F  0.12854766  0.00644460  0.94526955    -0.19700
F2206       F  0.14572078  0.92152896  0.92275702    -0.19750
F2207       F  0.17019591  0.93430180  0.92500923    -0.20080
F2208       F  0.15561856  0.93637295  0.90180868    -0.22750
C2209       C  0.09865451  0.86427098  0.04408464    -0.05590
C2210       C  0.11141759  0.87421404  0.04993621     0.00340
C2211       C  0.11214219  0.87831053  0.06684175    -0.08230
C2212       C  0.09986243  0.87220304  0.07739209    -0.05610
C2213       C  0.08722794  0.86200652  0.07159449     0.00330
C2214       C  0.08653440  0.85792708  0.05464945    -0.08140
C2215       C  0.07291179  0.84729901  0.04757622     0.62240
H2216       H  0.09838063  0.86137678  0.03109135     0.12930
H2217       H  0.10005524  0.87527725  0.09034412     0.12940
C2218       C  0.12549216  0.88945679  0.07361832     0.62470
F2219       F  0.07323736  0.84709064  0.03056776    -0.22690
F2220       F  0.05774761  0.85326361  0.05243426    -0.20020
F2221       F  0.07470116  0.83129818  0.05294904    -0.19700
F2222       F  0.12575619  0.90408037  0.06495837    -0.19750
F2223       F  0.14061043  0.88184840  0.07224827    -0.20080
F2224       F  0.12295764  0.89312787  0.09004096    -0.22750
C2225       C  0.75875002  0.10199405  0.04259937    -0.05590
C2226       C  0.77113063  0.10119355  0.03063728     0.00340
C2227       C  0.76674125  0.09979709  0.01384466    -0.08230
C2228       C  0.75003095  0.10051223  0.00960430    -0.05610
C2229       C  0.73757561  0.10169895  0.02150981     0.00330
C2230       C  0.74197216  0.10189401  0.03842657    -0.08140
C2231       C  0.72937228  0.10138155  0.05222161     0.62240
H2232       H  0.76236954  0.10267364  0.05538850     0.12930
H2233       H  0.74655943  0.10009159  0.99677186     0.12940
C2234       C  0.77938373  0.09669045  0.00042625     0.62470
F2235       F  0.73644274  0.09667404  0.06695693    -0.22690
F2236       F  0.71710939  0.09014099  0.04870273    -0.20020
F2237       F  0.72263825  0.11681019  0.05444527    -0.19700
F2238       F  0.79010182  0.08438010  0.00519256    -0.19750
F2239       F  0.78807404  0.11090720  0.99722924    -0.20080
F2240       F  0.77205251  0.09172066  0.98590280    -0.22750
C2241       C  0.88165292  0.03810338  0.10624477    -0.05590
C2242       C  0.86669696  0.04611138  0.10945970     0.00340
C2243       C  0.85781607  0.04196730  0.12391094    -0.08230
C2244       C  0.86373426  0.02914686  0.13390075    -0.05610
C2245       C  0.87848254  0.02083586  0.13044849     0.00330
C2246       C  0.88796043  0.02581643  0.11664699    -0.08140
C2247       C  0.90489411  0.01883973  0.11295310     0.62240
H2248       H  0.88842021  0.04146084  0.09528872     0.12930
H2249       H  0.85672658  0.02546285  0.14460388     0.12940
C2250       C  0.84246692  0.05115174  0.12932132     0.62470
F2251       F  0.91344679  0.02862648  0.10196153    -0.22690
F2252       F  0.90339436  0.00341783  0.10601919    -0.20020
F2253       F  0.91414903  0.01791921  0.12717150    -0.19700
F2254       F  0.82906030  0.04560211  0.12053245    -0.19750
F2255       F  0.84437025  0.06788855  0.12697689    -0.20080
F2256       F  0.83923025  0.04868878  0.14584917    -0.22750
C2257       C  0.98853864  0.24306897  0.92713828    -0.05590
C2258       C  0.00005677  0.23081850  0.92306831     0.00340
C2259       C  0.01664977  0.23552255  0.91988643    -0.08230
C2260       C  0.02071260  0.25234437  0.92020350    -0.05610
C2261       C  0.00908016  0.26443090  0.92398093     0.00330
C2262       C  0.99281899  0.25978088  0.92800495    -0.08140
C2263       C  0.98023650  0.27223719  0.93399846     0.62240
H2264       H  0.97599735  0.23945022  0.92970368     0.12930
H2265       H  0.03312370  0.25626857  0.91738061     0.12940
C2266       C  0.03033263  0.22325507  0.91647789     0.62470
F2267       F  0.96612120  0.26470182  0.93979663    -0.22690
F2268       F  0.97576722  0.28258318  0.92132893    -0.20020
F2269       F  0.98681268  0.28141719  0.94671258    -0.19700
F2270       F  0.02926457  0.21778721  0.90044041    -0.19750
F2271       F  0.02941829  0.21011987  0.92722075    -0.20080
F2272       F  0.04569707  0.23030459  0.91844907    -0.22750
C2273       C  0.92764901  0.12586430  0.99127932    -0.05590
C2274       C  0.92136960  0.13488098  0.97813280     0.00340
C2275       C  0.90453670  0.13889173  0.97782231    -0.08230
C2276       C  0.89456969  0.13399546  0.99110010    -0.05610
C2277       C  0.90059551  0.12470019  0.00454680     0.00330
C2278       C  0.91777318  0.12067356  0.00454983    -0.08140
C2279       C  0.92623270  0.11118570  0.01818000     0.62240
H2280       H  0.94066220  0.12308682  0.99106501     0.12930
H2281       H  0.88186207  0.13763164  0.99083603     0.12940
C2282       C  0.89700541  0.14774218  0.96320235     0.62470
F2283       F  0.94275404  0.10857452  0.01499769    -0.22690
F2284       F  0.91906233  0.09586639  0.01986583    -0.20020
F2285       F  0.92534755  0.12007377  0.03264329    -0.19700
F2286       F  0.90038068  0.13909321  0.94894745    -0.19750
F2287       F  0.90346431  0.16339338  0.96190746    -0.20080
F2288       F  0.88010215  0.14915784  0.96460125    -0.22750
C2289       C  0.04372532  0.10550139  0.90637429    -0.05590
C2290       C  0.02786398  0.10368758  0.89992997     0.00340
C2291       C  0.02472750  0.09141822  0.88804865    -0.08230
C2292       C  0.03750193  0.08063801  0.88365335    -0.05610
C2293       C  0.05328344  0.08201569  0.89050764     0.00330
C2294       C  0.05664228  0.09493764  0.90176039    -0.08140
C2295       C  0.07379396  0.09805389  0.90844783     0.62240
H2296       H  0.04588175  0.11527561  0.91517259     0.12930
H2297       H  0.03523084  0.07095539  0.87479132     0.12940
C2298       C  0.00814652  0.09019353  0.87961831     0.62470
F2299       F  0.07487557  0.11317917  0.91619200    -0.22690
F2300       F  0.08514372  0.09790442  0.89577876    -0.20020
F2301       F  0.07782780  0.08612287  0.91980397    -0.19700
F2302       F  0.00442071  0.10505426  0.87224356    -0.19750
F2303       F  0.99611345  0.08642721  0.89099761    -0.20080
F2304       F  0.00801261  0.07814502  0.86759500    -0.22750
loop_ 
_geom_bond_atom_site_label_1 
_geom_bond_atom_site_label_2 
_geom_bond_distance 
_geom_bond_site_symmetry_2 
_ccdc_geom_bond_type 
N1            N2   1.323       .  A
N1            C5   1.345       .  A
N1           Cu9   2.077       .  S
N2            C3   1.346       .  A
N2           Cu8   2.083       .  S
C3            C4   1.385       .  A
C3            H6   1.083       .  S
C4            C5   1.383       .  A
C4         C2274   1.480       .  S
C5            H7   1.082       .  S
Cu8          N11   2.083       .  S
Cu9          N19   2.076       .  S
Cu10         N12   2.062   1_655  S
Cu10         N18   2.061       .  S
N11          N12   1.322   1_655  A
N11          C15   1.347   1_655  A
N12          C13   1.344       .  A
C13          C14   1.379       .  A
C13          H16   1.082       .  S
C14          C15   1.385       .  A
C14        C2290   1.475       .  S
C15          H17   1.082   1_455  S
N18          N19   1.319       .  A
N18          C22   1.342       .  A
N19          C20   1.344       .  A
C20          C21   1.391       .  A
C20          H23   1.082       .  S
C21          C22   1.387       .  A
C21        C2258   1.492   1_655  S
C22          H24   1.076   1_655  S
N25          N26   1.315       .  A
N25          C29   1.342       .  A
N25         Cu33   2.066       .  S
N26          C27   1.343       .  A
N26         Cu32   2.084       .  S
C27          C28   1.402       .  A
C27          H30   1.070       .  S
C28          C29   1.400       .  A
C28        C2277   1.521       .  S
C29          H31   1.079       .  S
Cu32         N35   2.085       .  S
Cu33         N43   2.065       .  S
Cu34         N36   2.072       .  S
Cu34         N42   2.072       .  S
N35          N36   1.321       .  A
N35          C39   1.345       .  A
N36          C37   1.345       .  A
C37          C38   1.386       .  A
C37          H40   1.078       .  S
C38          C39   1.389       .  A
C38        C2242   1.490       .  S
C39          H41   1.082       .  S
N42          N43   1.321       .  A
N42          C46   1.345       .  A
N43          C44   1.343       .  A
C44          C45   1.383       .  A
C44          H47   1.079       .  S
C45          C46   1.385       .  A
C45        C2226   1.480       .  S
C46          H48   1.082       .  S
N49          N50   1.322       .  A
N49          C53   1.344       .  A
N49         Cu57   2.062       .  S
N50          C51   1.346       .  A
N50         Cu56   2.081   1_554  S
C51          C52   1.385       .  A
C51          H54   1.082       .  S
C52          C53   1.380       .  A
C52        C2210   1.476       .  S
C53          H55   1.081       .  S
Cu56         N59   2.081       .  S
Cu57         N67   2.061       .  S
Cu58         N60   2.073       .  S
Cu58         N66   2.072   1_556  S
N59          N60   1.323       .  A
N59          C63   1.345       .  A
N60          C61   1.345       .  A
C61          C62   1.382       .  A
C61          H64   1.082       .  S
C62          C63   1.384       .  A
C62        C2194   1.478       .  S
C63          H65   1.082       .  S
N66          N67   1.319       .  A
N66          C70   1.344       .  A
N67          C68   1.342       .  A
C68          C69   1.386       .  A
C68          H71   1.077       .  S
C69          C70   1.389       .  A
C69        C2178   1.488       .  S
C70          H72   1.082   1_554  S
N73          N74   1.320       .  A
N73          C77   1.344       .  A
N73         Cu81   2.072       .  S
N74          C75   1.344       .  A
N74         Cu80   2.069       .  S
C75          C76   1.385       .  A
C75          H78   1.079       .  S
C76          C77   1.386       .  A
C76        C2293   1.483       .  S
C77          H79   1.082       .  S
Cu80         N83   2.068       .  S
Cu81         N91   2.073       .  S
Cu82         N84   2.076       .  S
Cu82         N90   2.076       .  S
N83          N84   1.315       .  A
N83          C87   1.340       .  A
N84          C85   1.344   1_545  A
C85          C86   1.402       .  A
C85          H88   1.080       .  S
C86          C87   1.398   1_565  A
C86        C2197   1.519       .  S
C87          H89   1.070       .  S
N90          N91   1.321       .  A
N90          C94   1.342       .  A
N91          C92   1.345       .  A
C92          C93   1.388       .  A
C92          H95   1.076       .  S
C93          C94   1.389       .  A
C93        C2165   1.491       .  S
C94          H96   1.082   1_545  S
N97          N98   1.319       .  A
N97         C101   1.344   1_565  A
N97        Cu105   2.066       .  S
N98          C99   1.345       .  A
N98        Cu104   2.075       .  S
C99         C100   1.389   1_565  A
C99         H102   1.078       .  S
C100        C101   1.387       .  A
C100       C2245   1.490       .  S
C101        H103   1.083       .  S
Cu104       N107   2.075       .  S
Cu105       N115   2.065       .  S
Cu106       N108   2.080       .  S
Cu106       N114   2.080       .  S
N107        N108   1.324       .  A
N107        C111   1.344       .  A
N108        C109   1.346       .  A
C109        C110   1.383       .  A
C109        H112   1.082       .  S
C110        C111   1.382       .  A
C110       C2146   1.479       .  S
C111        H113   1.081       .  S
N114        N115   1.317       .  A
N114        C118   1.345       .  A
N115        C116   1.340       .  A
C116        C117   1.393       .  A
C116        H119   1.071       .  S
C117        C118   1.399       .  A
C117       C2130   1.510       .  S
C118        H120   1.081       .  S
N121        N122   1.325       .  A
N121        C125   1.343       .  A
N121       Cu129   2.070       .  S
N122        C123   1.347       .  A
N122       Cu128   2.093       .  S
C123        C124   1.385       .  A
C123        H126   1.083       .  S
C124        C125   1.380       .  A
C124       C2213   1.480       .  S
C125        H127   1.081       .  S
Cu128       N131   2.091       .  S
Cu129       N139   2.069       .  S
Cu130       N132   2.047       .  S
Cu130       N138   2.045       .  S
N131        N132   1.317       .  A
N131        C135   1.346       .  A
N132        C133   1.339   1_455  A
C133        C134   1.388       .  A
C133        H136   1.073       .  S
C134        C135   1.401   1_655  A
C134       C2149   1.505       .  S
C135        H137   1.081       .  S
N138        N139   1.319       .  A
N138        C142   1.340       .  A
N139        C140   1.345       .  A
C140        C141   1.386       .  A
C140        H143   1.082       .  S
C141        C142   1.379       .  A
C141       C2114   1.475       .  S
C142        H144   1.080   1_455  S
N145        N146   1.324       .  A
N145        C149   1.345       .  A
N145       Cu153   2.071       .  S
N146        C147   1.346       .  A
N146       Cu152   2.086       .  S
C147        C148   1.383       .  A
C147        H150   1.082       .  S
C148        C149   1.380       .  A
C148       C2082   1.474       .  S
C149        H151   1.082       .  S
Cu152       N155   2.085       .  S
Cu153       N163   2.071       .  S
Cu154       N156   2.062       .  S
Cu154       N162   2.062       .  S
N155        N156   1.322       .  A
N155        C159   1.347       .  A
N156        C157   1.344       .  A
C157        C158   1.381       .  A
C157        H160   1.082       .  S
C158        C159   1.386       .  A
C158       C2098   1.479       .  S
C159        H161   1.082       .  S
N162        N163   1.322       .  A
N162        C166   1.342       .  A
N163        C164   1.345       .  A
C164        C165   1.383       .  A
C164        H167   1.082       .  S
C165        C166   1.379       .  A
C165       C2066   1.472       .  S
C166        H168   1.083       .  S
N169        N170   1.324       .  A
N169        C173   1.344       .  A
N169       Cu177   2.069       .  S
N170        C171   1.347       .  A
N170       Cu176   2.085       .  S
C171        C172   1.383       .  A
C171        H174   1.082       .  S
C172        C173   1.379       .  A
C172       C2037   1.473       .  S
C173        H175   1.082       .  S
Cu176       N179   2.085       .  S
Cu177       N187   2.068       .  S
Cu178       N180   2.061       .  S
Cu178       N186   2.061       .  S
N179        N180   1.319       .  A
N179        C183   1.345       .  A
N180        C181   1.342       .  A
C181        C182   1.388       .  A
C181        H184   1.075       .  S
C182        C183   1.394       .  A
C182       C2050   1.497       .  S
C183        H185   1.082       .  S
N186        N187   1.320       .  A
N186        C190   1.342       .  A
N187        C188   1.345       .  A
C188        C189   1.385       .  A
C188        H191   1.081       .  S
C189        C190   1.381       .  A
C189       C2021   1.477       .  S
C190        H192   1.083       .  S
N193        N194   1.321       .  A
N193        C197   1.346       .  A
N193       Cu201   2.077       .  S
N194        C195   1.342       .  A
N194       Cu200   2.067       .  S
C195        C196   1.383       .  A
C195        H198   1.080       .  S
C196        C197   1.386       .  A
C196       C2002   1.483       .  S
C197        H199   1.082       .  S
Cu200       N203   2.068       .  S
Cu201       N211   2.078       .  S
Cu202       N204   2.076       .  S
Cu202       N210   2.076       .  S
N203        N204   1.318       .  A
N203        C207   1.343       .  A
N204        C205   1.345   1_455  A
C205        C206   1.392       .  A
C205        H208   1.082       .  S
C206        C207   1.389   1_655  A
C206       C2085   1.497       .  S
C207        H209   1.076       .  S
N210        N211   1.324       .  A
N210        C214   1.344       .  A
N211        C212   1.346       .  A
C212        C213   1.383       .  A
C212        H215   1.082       .  S
C213        C214   1.382       .  A
C213       C1989   1.477       .  S
C214        H216   1.082   1_455  S
N217        N218   1.318       .  A
N217        C221   1.341       .  A
N217       Cu225   2.059       .  S
N218        C219   1.345       .  A
N218       Cu224   2.089       .  S
C219        C220   1.398       .  A
C219        H222   1.081       .  S
C220        C221   1.389       .  A
C220       C2005   1.505       .  S
C221        H223   1.073       .  S
Cu224       N227   2.089       .  S
Cu225       N235   2.058       .  S
Cu226       N228   2.064       .  S
Cu226       N234   2.063       .  S
N227        N228   1.324       .  A
N227        C231   1.348       .  A
N228        C229   1.343       .  A
C229        C230   1.377       .  A
C229        H232   1.082       .  S
C230        C231   1.384       .  A
C230       C2053   1.473       .  S
C231        H233   1.082       .  S
N234        N235   1.319       .  A
N234        C238   1.343       .  A
N235        C236   1.341       .  A
C236        C237   1.385       .  A
C236        H239   1.083       .  S
C237        C238   1.386       .  A
C237       C1970   1.480       .  S
C238        H240   1.079       .  S
N241        N242   1.319   1_455  A
N241        C245   1.343       .  A
N241       Cu249   2.063   1_455  S
N242        C243   1.344   1_655  A
N242       Cu248   2.077       .  S
C243        C244   1.392       .  A
C243        H246   1.083   1_455  S
C244        C245   1.388       .  A
C244       C2034   1.495       .  S
C245        H247   1.076       .  S
Cu248       N251   2.076       .  S
Cu249       N259   2.064       .  S
Cu250       N252   2.074       .  S
Cu250       N258   2.074       .  S
N251        N252   1.321       .  A
N251        C255   1.344       .  A
N252        C253   1.344       .  A
C253        C254   1.386       .  A
C253        H256   1.082       .  S
C254        C255   1.387       .  A
C254       C1954   1.488       .  S
C255        H257   1.078       .  S
N258        N259   1.322       .  A
N258        C262   1.345       .  A
N259        C260   1.343       .  A
C260        C261   1.381       .  A
C260        H263   1.081   1_655  S
C261        C262   1.383       .  A
C261       C1938   1.475       .  S
C262        H264   1.082       .  S
N265        N266   1.319       .  A
N265        C269   1.345       .  A
N265       Cu273   2.090       .  S
N266        C267   1.342       .  A
N266       Cu272   2.081       .  S
C267        C268   1.397       .  A
C267        H270   1.070       .  S
C268        C269   1.400       .  A
C268       C2101   1.518       .  S
C269        H271   1.080       .  S
Cu272       N275   2.080       .  S
Cu273       N283   2.089       .  S
Cu274       N276   2.050       .  S
Cu274       N282   2.049       .  S
N275        N276   1.317       .  A
N275        C279   1.345       .  A
N276        C277   1.341       .  A
C277        C278   1.386       .  A
C277        H280   1.076       .  S
C278        C279   1.394       .  A
C278       C1957   1.493       .  S
C279        H281   1.082       .  S
N282        N283   1.320       .  A
N282        C286   1.339       .  A
N283        C284   1.347       .  A
C284        C285   1.393       .  A
C284        H287   1.082       .  S
C285        C286   1.382       .  A
C285       C1922   1.490       .  S
C286        H288   1.077       .  S
N289        N290   1.321       .  A
N289        C293   1.344   1_455  A
N289       Cu297   2.064       .  S
N290        C291   1.346       .  A
N290       Cu296   2.077       .  S
C291        C292   1.385   1_455  A
C291        H294   1.082       .  S
C292        C293   1.381       .  A
C292       C1909   1.478       .  S
C293        H295   1.082       .  S
Cu296       N299   2.076       .  S
Cu297       N307   2.064       .  S
Cu298       N300   2.080       .  S
Cu298       N306   2.080       .  S
N299        N300   1.320       .  A
N299        C303   1.343       .  A
N300        C301   1.344       .  A
C301        C302   1.393       .  A
C301        H304   1.082       .  S
C302        C303   1.391       .  A
C302       C1890   1.501       .  S
C303        H305   1.075       .  S
N306        N307   1.322       .  A
N306        C310   1.346       .  A
N307        C308   1.342       .  A
C308        C309   1.380       .  A
C308        H311   1.081   1_455  S
C309        C310   1.384       .  A
C309       C2261   1.477       .  S
C310        H312   1.082       .  S
N313        N314   1.318       .  A
N313        C317   1.340       .  A
N313       Cu321   2.074       .  S
N314        C315   1.345       .  A
N314       Cu320   2.094       .  S
C315        C316   1.405       .  A
C315        H318   1.079       .  S
C316        C317   1.397       .  A
C316       C1906   1.523       .  S
C317        H319   1.069       .  S
Cu320       N323   2.093       .  S
Cu321       N331   2.073       .  S
Cu322       N324   2.045       .  S
Cu322       N330   2.045       .  S
N323        N324   1.319       .  A
N323        C327   1.347       .  A
N324        C325   1.339       .  A
C325        C326   1.383       .  A
C325        H328   1.075       .  S
C326        C327   1.397       .  A
C326       C1874   1.494       .  S
C327        H329   1.081       .  S
N330        N331   1.319       .  A
N330        C334   1.340       .  A
N331        C332   1.346       .  A
C332        C333   1.387       .  A
C332        H335   1.083       .  S
C333        C334   1.379       .  A
C333       C2069   1.475       .  S
C334        H336   1.081       .  S
N337        N338   1.320   1_455  A
N337        C341   1.344       .  A
N337       Cu345   2.062   1_455  S
N338        C339   1.343   1_655  A
N338       Cu344   2.065       .  S
C339        C340   1.384       .  A
C339        H342   1.081   1_455  S
C340        C341   1.383       .  A
C340       C1858   1.478       .  S
C341        H343   1.082       .  S
Cu344       N347   2.066       .  S
Cu345       N355   2.060       .  S
Cu346       N348   2.079       .  S
Cu346       N354   2.079       .  S
N347        N348   1.320       .  A
N347        C351   1.341       .  A
N348        C349   1.345       .  A
C349        C350   1.393       .  A
C349        H352   1.082       .  S
C350        C351   1.387       .  A
C350       C1842   1.495       .  S
C351        H353   1.076       .  S
N354        N355   1.320       .  A
N354        C358   1.344       .  A
N355        C356   1.341       .  A
C356        C357   1.385       .  A
C356        H359   1.075   1_655  S
C357        C358   1.391       .  A
C357       C2117   1.491       .  S
C358        H360   1.081       .  S
N361        N362   1.322       .  A
N361        C365   1.344       .  A
N361       Cu369   2.063       .  S
N362        C363   1.345       .  A
N362       Cu368   2.072   1_554  S
C363        C364   1.382       .  A
C363        H366   1.082       .  S
C364        C365   1.379       .  A
C364       C1845   1.471       .  S
C365        H367   1.082       .  S
Cu368       N371   2.072       .  S
Cu369       N379   2.063       .  S
Cu370       N372   2.074       .  S
Cu370       N378   2.074       .  S
N371        N372   1.322       .  A
N371        C375   1.343       .  A
N372        C373   1.345       .  A
C373        C374   1.384       .  A
C373        H376   1.082       .  S
C374        C375   1.383       .  A
C374       C1877   1.480       .  S
C375        H377   1.079       .  S
N378        N379   1.321   1_556  A
N378        C382   1.344       .  A
N379        C380   1.342       .  A
C380        C381   1.383       .  A
C380        H383   1.080       .  S
C381        C382   1.386   1_554  A
C381       C1826   1.481       .  S
C382        H384   1.082       .  S
N385        N386   1.322       .  A
N385        C389   1.344       .  A
N385       Cu393   2.068       .  S
N386        C387   1.345       .  A
N386       Cu392   2.088       .  S
C387        C388   1.391       .  A
C387        H390   1.082       .  S
C388        C389   1.386       .  A
C388       C1810   1.491       .  S
C389        H391   1.077       .  S
Cu392       N395   2.088       .  S
Cu393       N403   2.067       .  S
Cu394       N396   2.057       .  S
Cu394       N402   2.055       .  S
N395        N396   1.320       .  A
N395        C399   1.347       .  A
N396        C397   1.342       .  A
C397        C398   1.383       .  A
C397        H400   1.079       .  S
C398        C399   1.391       .  A
C398       C1893   1.487   1_554  S
C399        H401   1.082       .  S
N402        N403   1.319       .  A
N402        C406   1.341       .  A
N403        C404   1.343       .  A
C404        C405   1.386       .  A
C404        H407   1.083       .  S
C405        C406   1.383       .  A
C405       C1797   1.481       .  S
C406        H408   1.079       .  S
N409        N410   1.317       .  A
N409        C413   1.341       .  A
N409       Cu417   2.066       .  S
N410        C411   1.343       .  A
N410       Cu416   2.083       .  S
C411        C412   1.400       .  A
C411        H414   1.080       .  S
C412        C413   1.394       .  A
C412       C1861   1.511       .  S
C413        H415   1.072       .  S
Cu416       N419   2.083       .  S
Cu417       N427   2.066       .  S
Cu418       N420   2.062       .  S
Cu418       N426   2.061       .  S
N419        N420   1.322       .  A
N419        C423   1.346       .  A
N420        C421   1.343       .  A
C421        C422   1.381       .  A
C421        H424   1.082       .  S
C422        C423   1.387       .  A
C422       C1813   1.482       .  S
C423        H425   1.079       .  S
N426        N427   1.320       .  A
N426        C430   1.342       .  A
N427        C428   1.344       .  A
C428        C429   1.384       .  A
C428        H431   1.082       .  S
C429        C430   1.381       .  A
C429       C2018   1.474       .  S
C430        H432   1.082       .  S
N433        N434   1.322       .  A
N433        C437   1.343       .  A
N433       Cu441   2.058       .  S
N434        C435   1.347       .  A
N434       Cu440   2.083       .  S
C435        C436   1.386       .  A
C435        H438   1.082       .  S
C436        C437   1.380       .  A
C436       C1778   1.477       .  S
C437        H439   1.081       .  S
Cu440       N443   2.084       .  S
Cu441       N451   2.058       .  S
Cu442       N444   2.075       .  S
Cu442       N450   2.074       .  S
N443        N444   1.324       .  A
N443        C447   1.346       .  A
N444        C445   1.345       .  A
C445        C446   1.380       .  A
C445        H448   1.082       .  S
C446        C447   1.382       .  A
C446       C1765   1.474       .  S
C447        H449   1.082       .  S
N450        N451   1.321       .  A
N450        C454   1.345       .  A
N451        C452   1.342       .  A
C452        C453   1.381       .  A
C452        H455   1.081       .  S
C453        C454   1.385       .  A
C453       C1746   1.476       .  S
C454        H456   1.082       .  S
N457        N458   1.323       .  A
N457        C461   1.344       .  A
N457       Cu465   2.068       .  S
N458        C459   1.346       .  A
N458       Cu464   2.086       .  S
C459        C460   1.385       .  A
C459        H462   1.082       .  S
C460        C461   1.382       .  A
C460       C1781   1.480       .  S
C461        H463   1.080       .  S
Cu464       N467   2.086   1_556  S
Cu465       N475   2.067       .  S
Cu466       N468   2.059       .  S
Cu466       N474   2.058       .  S
N467        N468   1.323       .  A
N467        C471   1.347       .  A
N468        C469   1.343       .  A
C469        C470   1.378       .  A
C469        H472   1.082       .  S
C470        C471   1.384       .  A
C470       C1733   1.473       .  S
C471        H473   1.082       .  S
N474        N475   1.320   1_554  A
N474        C478   1.342       .  A
N475        C476   1.344   1_556  A
C476        C477   1.385       .  A
C476        H479   1.082   1_554  S
C477        C478   1.382       .  A
C477       C1794   1.477       .  S
C478        H480   1.079       .  S
N481        N482   1.321       .  A
N481        C485   1.343       .  A
N481       Cu489   2.063       .  S
N482        C483   1.347       .  A
N482       Cu488   2.088       .  S
C483        C484   1.389       .  A
C483        H486   1.082       .  S
C484        C485   1.384       .  A
C484       C1762   1.487       .  S
C485        H487   1.077       .  S
Cu488       N491   2.088       .  S
Cu489       N499   2.063       .  S
Cu490       N492   2.071       .  S
Cu490       N498   2.071       .  S
N491        N492   1.323       .  A
N491        C495   1.347       .  A
N492        C493   1.344       .  A
C493        C494   1.381       .  A
C493        H496   1.082       .  S
C494        C495   1.385       .  A
C494       C1714   1.480       .  S
C495        H497   1.083       .  S
N498        N499   1.320       .  A
N498        C502   1.345       .  A
N499        C500   1.343       .  A
C500        C501   1.383       .  A
C500        H503   1.080       .  S
C501        C502   1.385       .  A
C501       C1698   1.480       .  S
C502        H504   1.082       .  S
N505        N506   1.323       .  A
N505        C509   1.345       .  A
N505       Cu513   2.074       .  S
N506        C507   1.346       .  A
N506       Cu512   2.079       .  S
C507        C508   1.383       .  A
C507        H510   1.082       .  S
C508        C509   1.382       .  A
C508       C1685   1.476       .  S
C509        H511   1.082       .  S
Cu512       N515   2.079       .  S
Cu513       N523   2.073       .  S
Cu514       N516   2.070       .  S
Cu514       N522   2.070       .  S
N515        N516   1.321       .  A
N515        C519   1.345       .  A
N516        C517   1.344       .  A
C517        C518   1.386       .  A
C517        H520   1.083       .  S
C518        C519   1.388       .  A
C518       C1730   1.488       .  S
C519        H521   1.079       .  S
N522        N523   1.320       .  A
N522        C526   1.344       .  A
N523        C524   1.343       .  A
C524        C525   1.388       .  A
C524        H527   1.082       .  S
C525        C526   1.387       .  A
C525       C1666   1.488       .  S
C526        H528   1.078       .  S
N529        N530   1.323       .  A
N529        C533   1.345       .  A
N529       Cu537   2.076       .  S
N530        C531   1.345       .  A
N530       Cu536   2.076       .  S
C531        C532   1.384       .  A
C531        H534   1.080       .  S
C532        C533   1.384       .  A
C532       C1650   1.480       .  S
C533        H535   1.082       .  S
Cu536       N539   2.076       .  S
Cu537       N547   2.076       .  S
Cu538       N540   2.063       .  S
Cu538       N546   2.062       .  S
N539        N540   1.321       .  A
N539        C543   1.345       .  A
N540        C541   1.344       .  A
C541        C542   1.381       .  A
C541        H544   1.081       .  S
C542        C543   1.384       .  A
C542       C1717   1.477   1_554  S
C543        H545   1.082       .  S
N546        N547   1.321       .  A
N546        C550   1.342       .  A
N547        C548   1.345       .  A
C548        C549   1.387       .  A
C548        H551   1.082       .  S
C549        C550   1.383       .  A
C549       C1829   1.483       .  S
C550        H552   1.078       .  S
N553        N554   1.323       .  A
N553        C557   1.347       .  A
N553       Cu561   2.090       .  S
N554        C555   1.344       .  A
N554       Cu560   2.075       .  S
C555        C556   1.383       .  A
C555        H558   1.079       .  S
C556        C557   1.388       .  A
C556       C1682   1.485       .  S
C557        H559   1.082       .  S
Cu560       N563   2.074       .  S
Cu561       N571   2.089       .  S
Cu562       N564   2.055       .  S
Cu562       N570   2.055       .  S
N563        N564   1.320       .  A
N563        C567   1.346       .  A
N564        C565   1.342       .  A
C565        C566   1.381       .  A
C565        H568   1.082       .  S
C566        C567   1.386       .  A
C566       C1653   1.475       .  S
C567        H569   1.082       .  S
N570        N571   1.321       .  A
N570        C574   1.340       .  A
N571        C572   1.348       .  A
C572        C573   1.392       .  A
C572        H575   1.082       .  S
C573        C574   1.382       .  A
C573       C1634   1.488       .  S
C574        H576   1.078       .  S
N577        N578   1.321       .  A
N577        C581   1.345       .  A
N577       Cu585   2.073       .  S
N578        C579   1.345       .  A
N578       Cu584   2.082       .  S
C579        C580   1.389       .  A
C579        H582   1.078       .  S
C580        C581   1.387       .  A
C580       C1618   1.492       .  S
C581        H583   1.082       .  S
Cu584       N587   2.081       .  S
Cu585       N595   2.073       .  S
Cu586       N588   2.062       .  S
Cu586       N594   2.062       .  S
N587        N588   1.320       .  A
N587        C591   1.344       .  A
N588        C589   1.344       .  A
C589        C590   1.386       .  A
C589        H592   1.077       .  S
C590        C591   1.390       .  A
C590       C1602   1.489       .  S
C591        H593   1.082       .  S
N594        N595   1.322       .  A
N594        C598   1.343       .  A
N595        C596   1.344       .  A
C596        C597   1.383       .  A
C596        H599   1.082       .  S
C597        C598   1.380       .  A
C597       C2181   1.474       .  S
C598        H600   1.083       .  S
N601        N602   1.324       .  A
N601        C605   1.345       .  A
N601       Cu609   2.078       .  S
N602        C603   1.347       .  A
N602       Cu608   2.084       .  S
C603        C604   1.383       .  A
C603        H606   1.082       .  S
C604        C605   1.381       .  A
C604       C1621   1.476       .  S
C605        H607   1.082       .  S
Cu608       N611   2.084       .  S
Cu609       N619   2.078       .  S
Cu610       N612   2.066       .  S
Cu610       N618   2.065       .  S
N611        N612   1.322       .  A
N611        C615   1.347       .  A
N612        C613   1.344       .  A
C613        C614   1.382       .  A
C613        H616   1.082       .  S
C614        C615   1.386       .  A
C614       C1586   1.482       .  S
C615        H617   1.081       .  S
N618        N619   1.320       .  A
N618        C622   1.342       .  A
N619        C620   1.346       .  A
C620        C621   1.389       .  A
C620        H623   1.082       .  S
C621        C622   1.385       .  A
C621       C1701   1.489       .  S
C622        H624   1.077       .  S
N625        N626   1.323       .  A
N625        C629   1.343       .  A
N625       Cu633   2.064       .  S
N626        C627   1.346       .  A
N626       Cu632   2.080   1_554  S
C627        C628   1.383       .  A
C627        H630   1.082       .  S
C628        C629   1.379       .  A
C628       C1570   1.474       .  S
C629        H631   1.082       .  S
Cu632       N635   2.080       .  S
Cu633       N643   2.062       .  S
Cu634       N636   2.069       .  S
Cu634       N642   2.070   1_556  S
N635        N636   1.320       .  A
N635        C639   1.344       .  A
N636        C637   1.343       .  A
C637        C638   1.389       .  A
C637        H640   1.075       .  S
C638        C639   1.392       .  A
C638       C1554   1.497       .  S
C639        H641   1.082       .  S
N642        N643   1.319       .  A
N642        C646   1.343       .  A
N643        C644   1.343       .  A
C644        C645   1.386       .  A
C644        H647   1.078       .  S
C645        C646   1.388       .  A
C645       C2229   1.487       .  S
C646        H648   1.082   1_554  S
N649        N650   1.317       .  A
N649        C653   1.341       .  A
N649       Cu657   2.072       .  S
N650        C651   1.345       .  A
N650       Cu656   2.087       .  S
C651        C652   1.403       .  A
C651        H654   1.079       .  S
C652        C653   1.397       .  A
C652       C1589   1.520       .  S
C653        H655   1.070       .  S
Cu656       N659   2.087       .  S
Cu657       N667   2.071       .  S
Cu658       N660   2.063       .  S
Cu658       N666   2.062       .  S
N659        N660   1.323       .  A
N659        C663   1.347       .  A
N660        C661   1.343   1_565  A
C661        C662   1.377       .  A
C661        H664   1.082       .  S
C662        C663   1.384   1_545  A
C662       C1557   1.473       .  S
C663        H665   1.082       .  S
N666        N667   1.321       .  A
N666        C670   1.343       .  A
N667        C668   1.345       .  A
C668        C669   1.384       .  A
C668        H671   1.082       .  S
C669        C670   1.381       .  A
C669       C1538   1.474       .  S
C670        H672   1.082   1_565  S
N673        N674   1.322       .  A
N673        C677   1.345       .  A
N673       Cu681   2.067       .  S
N674        C675   1.345       .  A
N674       Cu680   2.075       .  S
C675        C676   1.382       .  A
C675        H678   1.082       .  S
C676        C677   1.380       .  A
C676       C1522   1.473       .  S
C677        H679   1.082       .  S
Cu680       N683   2.075       .  S
Cu681       N691   2.067       .  S
Cu682       N684   2.068   1_545  S
Cu682       N690   2.067       .  S
N683        N684   1.321   1_545  A
N683        C687   1.344       .  A
N684        C685   1.344       .  A
C685        C686   1.385       .  A
C685        H688   1.082       .  S
C686        C687   1.386   1_565  A
C686       C1605   1.485       .  S
C687        H689   1.078       .  S
N690        N691   1.322       .  A
N690        C694   1.343       .  A
N691        C692   1.344       .  A
C692        C693   1.383       .  A
C692        H695   1.080       .  S
C693        C694   1.382       .  A
C693       C1509   1.477       .  S
C694        H696   1.083   1_545  S
N697        N698   1.322       .  A
N697        C701   1.343       .  A
N697       Cu705   2.067       .  S
N698        C699   1.346       .  A
N698       Cu704   2.080       .  S
C699        C700   1.385       .  A
C699        H702   1.082       .  S
C700        C701   1.382       .  A
C700       C1573   1.477       .  S
C701        H703   1.082       .  S
Cu704       N707   2.080       .  S
Cu705       N715   2.067       .  S
Cu706       N708   2.068       .  S
Cu706       N714   2.068       .  S
N707        N708   1.321       .  A
N707        C711   1.345       .  A
N708        C709   1.343       .  A
C709        C710   1.384       .  A
C709        H712   1.079       .  S
C710        C711   1.387       .  A
C710       C1525   1.485       .  S
C711        H713   1.083       .  S
N714        N715   1.320       .  A
N714        C718   1.343       .  A
N715        C716   1.344       .  A
C716        C717   1.385       .  A
C716        H719   1.079       .  S
C717        C718   1.385       .  A
C717       C1669   1.482       .  S
C718        H720   1.082       .  S
N721        N722   1.324       .  A
N721        C725   1.345       .  A
N721       Cu729   2.076       .  S
N722        C723   1.347       .  A
N722       Cu728   2.087       .  S
C723        C724   1.383       .  A
C723        H726   1.082       .  S
C724        C725   1.381       .  A
C724       C1474   1.477       .  S
C725        H727   1.082       .  S
Cu728       N731   2.087       .  S
Cu729       N739   2.076       .  S
Cu730       N732   2.063       .  S
Cu730       N738   2.063       .  S
N731        N732   1.322       .  A
N731        C735   1.347       .  A
N732        C733   1.344       .  A
C733        C734   1.380       .  A
C733        H736   1.082       .  S
C734        C735   1.385       .  A
C734       C1490   1.478       .  S
C735        H737   1.082       .  S
N738        N739   1.321       .  A
N738        C742   1.343       .  A
N739        C740   1.346       .  A
C740        C741   1.384       .  A
C740        H743   1.082       .  S
C741        C742   1.380       .  A
C741       C1458   1.476       .  S
C742        H744   1.081       .  S
N745        N746   1.319       .  A
N745        C749   1.342   1_565  A
N745       Cu753   2.069       .  S
N746        C747   1.345       .  A
N746       Cu752   2.089       .  S
C747        C748   1.398   1_565  A
C747        H750   1.081       .  S
C748        C749   1.393       .  A
C748       C1442   1.510       .  S
C749        H751   1.073       .  S
Cu752       N755   2.089       .  S
Cu753       N763   2.069       .  S
Cu754       N756   2.067       .  S
Cu754       N762   2.067       .  S
N755        N756   1.323       .  A
N755        C759   1.347       .  A
N756        C757   1.344       .  A
C757        C758   1.381       .  A
C757        H760   1.081       .  S
C758        C759   1.386       .  A
C758       C1429   1.481       .  S
C759        H761   1.082       .  S
N762        N763   1.320       .  A
N762        C766   1.344       .  A
N763        C764   1.344       .  A
C764        C765   1.385       .  A
C764        H767   1.082       .  S
C765        C766   1.384       .  A
C765       C2162   1.480       .  S
C766        H768   1.080       .  S
N769        N770   1.324   1_455  A
N769        C773   1.345       .  A
N769       Cu777   2.075   1_455  S
N770        C771   1.347   1_655  A
N770       Cu776   2.091       .  S
C771        C772   1.385       .  A
C771        H774   1.082   1_455  S
C772        C773   1.381       .  A
C772       C1426   1.480       .  S
C773        H775   1.081       .  S
Cu776       N779   2.091       .  S
Cu777       N787   2.074       .  S
Cu778       N780   2.061       .  S
Cu778       N786   2.062       .  S
N779        N780   1.321       .  A
N779        C783   1.348       .  A
N780        C781   1.342       .  A
C781        C782   1.382       .  A
C781        H784   1.080       .  S
C782        C783   1.388       .  A
C782       C1493   1.484       .  S
C783        H785   1.083       .  S
N786        N787   1.316       .  A
N786        C790   1.341       .  A
N787        C788   1.343       .  A
C788        C789   1.398       .  A
C788        H791   1.081   1_655  S
C789        C790   1.393       .  A
C789       C1986   1.508       .  S
C790        H792   1.072       .  S
N793        N794   1.322       .  A
N793        C797   1.343       .  A
N793       Cu801   2.070       .  S
N794        C795   1.347       .  A
N794       Cu800   2.092       .  S
C795        C796   1.390       .  A
C795        H798   1.082       .  S
C796        C797   1.385       .  A
C796       C1413   1.491       .  S
C797        H799   1.076       .  S
Cu800       N803   2.092       .  S
Cu801       N811   2.069       .  S
Cu802       N804   2.062   1_545  S
Cu802       N810   2.061       .  S
N803        N804   1.322   1_545  A
N803        C807   1.347   1_545  A
N804        C805   1.343       .  A
C805        C806   1.383       .  A
C805        H808   1.079       .  S
C806        C807   1.390       .  A
C806       C1477   1.487       .  S
C807        H809   1.082       .  S
N810        N811   1.321       .  A
N810        C814   1.343   1_545  A
N811        C812   1.345       .  A
C812        C813   1.383       .  A
C812        H815   1.082       .  S
C813        C814   1.380   1_545  A
C813       C2133   1.474       .  S
C814        H816   1.082       .  S
N817        N818   1.321       .  A
N817        C821   1.346       .  A
N817       Cu825   2.084       .  S
N818        C819   1.342       .  A
N818       Cu824   2.072       .  S
C819        C820   1.386       .  A
C819        H822   1.077       .  S
C820        C821   1.390       .  A
C820       C1394   1.493       .  S
C821        H823   1.083       .  S
Cu824       N827   2.072       .  S
Cu825       N835   2.083       .  S
Cu826       N828   2.062       .  S
Cu826       N834   2.061       .  S
N827        N828   1.320       .  A
N827        C831   1.345       .  A
N828        C829   1.345   1_455  A
C829        C830   1.381       .  A
C829        H832   1.082       .  S
C830        C831   1.382   1_655  A
C830       C1410   1.473       .  S
C831        H833   1.082       .  S
N834        N835   1.321       .  A
N834        C838   1.341       .  A
N835        C836   1.346       .  A
C836        C837   1.390       .  A
C836        H839   1.082       .  S
C837        C838   1.384       .  A
C837       C1941   1.489       .  S
C838        H840   1.076       .  S
N841        N842   1.324       .  A
N841        C845   1.344       .  A
N841       Cu849   2.069       .  S
N842        C843   1.347       .  A
N842       Cu848   2.086       .  S
C843        C844   1.384       .  A
C843        H846   1.082       .  S
C844        C845   1.379       .  A
C844       C1445   1.476       .  S
C845        H847   1.082       .  S
Cu848       N851   2.085       .  S
Cu849       N859   2.069       .  S
Cu850       N852   2.062       .  S
Cu850       N858   2.062       .  S
N851        N852   1.321       .  A
N851        C855   1.345       .  A
N852        C853   1.343       .  A
C853        C854   1.384       .  A
C853        H856   1.079       .  S
C854        C855   1.389       .  A
C854       C1397   1.486       .  S
C855        H857   1.082       .  S
N858        N859   1.315       .  A
N858        C862   1.339       .  A
N859        C860   1.343       .  A
C860        C861   1.399       .  A
C860        H863   1.071       .  S
C861        C862   1.398       .  A
C861       C1378   1.513       .  S
C862        H864   1.079       .  S
N865        N866   1.324       .  A
N865        C869   1.346       .  A
N865       Cu873   2.079       .  S
N866        C867   1.347       .  A
N866       Cu872   2.085       .  S
C867        C868   1.383       .  A
C867        H870   1.082       .  S
C868        C869   1.382       .  A
C868       C1346   1.479       .  S
C869        H871   1.082       .  S
Cu872       N875   2.084       .  S
Cu873       N883   2.079       .  S
Cu874       N876   2.065       .  S
Cu874       N882   2.063       .  S
N875        N876   1.317       .  A
N875        C879   1.345       .  A
N876        C877   1.342       .  A
C877        C878   1.394       .  A
C877        H880   1.081       .  S
C878        C879   1.397       .  A
C878       C1362   1.510       .  S
C879        H881   1.073       .  S
N882        N883   1.322       .  A
N882        C886   1.342       .  A
N883        C884   1.346       .  A
C884        C885   1.385       .  A
C884        H887   1.082       .  S
C885        C886   1.382       .  A
C885       C1925   1.480       .  S
C886        H888   1.080       .  S
N889        N890   1.323       .  A
N889        C893   1.345       .  A
N889       Cu897   2.071       .  S
N890        C891   1.347       .  A
N890       Cu896   2.097       .  S
C891        C892   1.389       .  A
C891        H894   1.082       .  S
C892        C893   1.383       .  A
C892       C1330   1.485       .  S
C893        H895   1.080       .  S
Cu896       N899   2.096       .  S
Cu897       N907   2.071       .  S
Cu898       N900   2.065       .  S
Cu898       N906   2.065       .  S
N899        N900   1.318       .  A
N899        C903   1.348       .  A
N900        C901   1.341       .  A
C901        C902   1.392       .  A
C901        H904   1.072       .  S
C902        C903   1.401       .  A
C902       C1349   1.513       .  S
C903        H905   1.081       .  S
N906        N907   1.321       .  A
N906        C910   1.344       .  A
N907        C908   1.346       .  A
C908        C909   1.383       .  A
C908        H911   1.082       .  S
C909        C910   1.380       .  A
C909       C1637   1.472       .  S
C910        H912   1.082       .  S
N913        N914   1.321       .  A
N913        C917   1.343       .  A
N913       Cu921   2.061       .  S
N914        C915   1.346       .  A
N914       Cu920   2.078       .  S
C915        C916   1.384       .  A
C915        H918   1.083       .  S
C916        C917   1.380       .  A
C916       C1314   1.474       .  S
C917        H919   1.082       .  S
Cu920       N923   2.078       .  S
Cu921       N931   2.061       .  S
Cu922       N924   2.078       .  S
Cu922       N930   2.077       .  S
N923        N924   1.317       .  A
N923        C927   1.341       .  A
N924        C925   1.344       .  A
C925        C926   1.401       .  A
C925        H928   1.080       .  S
C926        C927   1.399       .  A
C926       C1333   1.520       .  S
C927        H929   1.071       .  S
N930        N931   1.318       .  A
N930        C934   1.342       .  A
N931        C932   1.342       .  A
C932        C933   1.390       .  A
C932        H935   1.074       .  S
C933        C934   1.394       .  A
C933       C1298   1.499       .  S
C934        H936   1.081       .  S
N937        N938   1.319       .  A
N937        C941   1.344       .  A
N937       Cu945   2.063       .  S
N938        C939   1.344       .  A
N938       Cu944   2.073       .  S
C939        C940   1.387       .  A
C939        H942   1.082       .  S
C940        C941   1.386       .  A
C940       C1317   1.485       .  S
C941        H943   1.078       .  S
Cu944       N947   2.072       .  S
Cu945       N955   2.063       .  S
Cu946       N948   2.075       .  S
Cu946       N954   2.075       .  S
N947        N948   1.318       .  A
N947        C951   1.342       .  A
N948        C949   1.343       .  A
C949        C950   1.396       .  A
C949        H952   1.081       .  S
C950        C951   1.394       .  A
C950       C1282   1.508       .  S
C951        H953   1.072       .  S
N954        N955   1.322       .  A
N954        C958   1.345       .  A
N955        C956   1.341       .  A
C956        C957   1.383       .  A
C956        H959   1.082       .  S
C957        C958   1.386       .  A
C957       C1973   1.480       .  S
C958        H960   1.079       .  S
N961        N962   1.319       .  A
N961        C965   1.341       .  A
N961       Cu969   2.051       .  S
N962        C963   1.347       .  A
N962       Cu968   2.093       .  S
C963        C964   1.395       .  A
C963        H966   1.082       .  S
C964        C965   1.384       .  A
C964       C1269   1.494       .  S
C965        H967   1.076       .  S
Cu968       N971   2.094       .  S
Cu969       N979   2.050       .  S
Cu970       N972   2.070       .  S
Cu970       N978   2.068       .  S
N971        N972   1.323       .  A
N971        C975   1.347       .  A
N972        C973   1.344       .  A
C973        C974   1.382       .  A
C973        H976   1.081       .  S
C974        C975   1.388       .  A
C974       C1365   1.484       .  S
C975        H977   1.083       .  S
N978        N979   1.321       .  A
N978        C982   1.345       .  A
N979        C980   1.341       .  A
C980        C981   1.377       .  A
C980        H983   1.082       .  S
C981        C982   1.382       .  A
C981       C1250   1.466       .  S
C982        H984   1.082       .  S
N985        N986   1.322       .  A
N985        C989   1.345       .  A
N985       Cu993   2.076       .  S
N986        C987   1.344       .  A
N986       Cu992   2.075       .  S
C987        C988   1.385       .  A
C987        H990   1.079       .  S
C988        C989   1.385       .  A
C988       C1266   1.485       .  S
C989        H991   1.082       .  S
Cu992       N995   2.075       .  S
Cu993      N1003   2.075       .  S
Cu994       N996   2.062       .  S
Cu994      N1002   2.062       .  S
N995        N996   1.321       .  A
N995        C999   1.345       .  A
N996        C997   1.343       .  A
C997        C998   1.382       .  A
C997       H1000   1.082       .  S
C998        C999   1.385       .  A
C998       C1285   1.477       .  S
C999       H1001   1.082       .  S
N1002      N1003   1.322       .  A
N1002      C1006   1.341       .  A
N1003      C1004   1.346       .  A
C1004      C1005   1.386       .  A
C1004      H1007   1.080       .  S
C1005      C1006   1.381       .  A
C1005      C1749   1.478       .  S
C1006      H1008   1.082       .  S
N1009      N1010   1.320       .  A
N1009      C1013   1.345       .  A
N1009     Cu1017   2.080       .  S
N1010      C1011   1.343       .  A
N1010     Cu1016   2.077       .  S
C1011      C1012   1.391       .  A
C1011      H1014   1.074       .  S
C1012      C1013   1.393       .  A
C1012      C1218   1.502       .  S
C1013      H1015   1.082       .  S
Cu1016     N1019   2.078       .  S
Cu1017     N1027   2.080       .  S
Cu1018     N1020   2.069   1_545  S
Cu1018     N1026   2.069       .  S
N1019      N1020   1.321   1_545  A
N1019      C1023   1.346       .  A
N1020      C1021   1.345       .  A
C1021      C1022   1.384       .  A
C1021      H1024   1.082       .  S
C1022      C1023   1.386   1_565  A
C1022      C1234   1.482       .  S
C1023      H1025   1.080       .  S
N1026      N1027   1.322       .  A
N1026      C1030   1.342       .  A
N1027      C1028   1.346       .  A
C1028      C1029   1.388       .  A
C1028      H1031   1.079       .  S
C1029      C1030   1.384       .  A
C1029      C1541   1.486       .  S
C1030      H1032   1.082   1_545  S
N1033      N1034   1.319       .  A
N1033      C1037   1.341       .  A
N1033     Cu1041   2.046       .  S
N1034      C1035   1.347       .  A
N1034     Cu1040   2.092       .  S
C1035      C1036   1.393       .  A
C1035      H1038   1.083       .  S
C1036      C1037   1.381       .  A
C1036      C1221   1.486       .  S
C1037      H1039   1.079       .  S
Cu1040     N1043   2.093       .  S
Cu1041     N1051   2.046       .  S
Cu1042     N1044   2.080       .  S
Cu1042     N1050   2.079       .  S
N1043      N1044   1.326       .  A
N1043      C1047   1.347       .  A
N1044      C1045   1.346       .  A
C1045      C1046   1.381       .  A
C1045      H1048   1.082       .  S
C1046      C1047   1.383       .  A
C1046      C1205   1.479       .  S
C1047      H1049   1.082       .  S
N1050      N1051   1.317       .  A
N1050      C1054   1.345       .  A
N1051      C1052   1.337       .  A
C1052      C1053   1.385       .  A
C1052      H1055   1.078       .  S
C1053      C1054   1.397       .  A
C1053      C1253   1.495       .  S
C1054      H1056   1.081       .  S
N1057      N1058   1.324       .  A
N1057      C1061   1.346       .  A
N1057     Cu1065   2.087       .  S
N1058      C1059   1.346       .  A
N1058     Cu1064   2.080       .  S
C1059      C1060   1.384       .  A
C1059      H1062   1.080       .  S
C1060      C1061   1.385       .  A
C1060      C1237   1.483       .  S
C1061      H1063   1.082       .  S
Cu1064     N1067   2.079       .  S
Cu1065     N1075   2.086       .  S
Cu1066     N1068   2.060       .  S
Cu1066     N1074   2.058       .  S
N1067      N1068   1.320       .  A
N1067      C1071   1.346       .  A
N1068      C1069   1.343       .  A
C1069      C1070   1.383       .  A
C1069      H1072   1.080       .  S
C1070      C1071   1.388       .  A
C1070      C1186   1.483       .  S
C1071      H1073   1.082       .  S
N1074      N1075   1.318       .  A
N1074      C1078   1.340       .  A
N1075      C1076   1.346       .  A
C1076      C1077   1.397       .  A
C1076      H1079   1.082       .  S
C1077      C1078   1.388       .  A
C1077      C1461   1.502       .  S
C1078      H1080   1.074       .  S
N1081      N1082   1.322       .  A
N1081      C1085   1.343       .  A
N1081     Cu1089   2.064       .  S
N1082      C1083   1.346       .  A
N1082     Cu1088   2.079       .  S
C1083      C1084   1.385       .  A
C1083      H1086   1.082       .  S
C1084      C1085   1.382       .  A
C1084      C1202   1.480       .  S
C1085      H1087   1.081       .  S
Cu1088     N1091   2.079       .  S
Cu1089     N1099   2.064       .  S
Cu1090     N1092   2.069       .  S
Cu1090     N1098   2.069       .  S
N1091      N1092   1.322       .  A
N1091      C1095   1.345       .  A
N1092      C1093   1.344       .  A
C1093      C1094   1.383       .  A
C1093      H1096   1.082       .  S
C1094      C1095   1.385       .  A
C1094      C1170   1.479       .  S
C1095      H1097   1.080       .  S
N1098      N1099   1.322       .  A
N1098      C1102   1.344       .  A
N1099      C1100   1.343       .  A
C1100      C1101   1.380       .  A
C1100      H1103   1.082       .  S
C1101      C1102   1.382       .  A
C1101      C1381   1.472       .  S
C1102      H1104   1.082       .  S
N1105      N1106   1.323       .  A
N1105      C1109   1.343   1_565  A
N1105     Cu1113   2.061       .  S
N1106      C1107   1.346       .  A
N1106     Cu1112   2.083       .  S
C1107      C1108   1.384   1_565  A
C1107      H1110   1.081       .  S
C1108      C1109   1.378       .  A
C1108      C1173   1.473       .  S
C1109      H1111   1.082       .  S
Cu1112     N1115   2.083       .  S
Cu1113     N1123   2.060       .  S
Cu1114     N1116   2.064       .  S
Cu1114     N1122   2.063       .  S
N1115      N1116   1.316       .  A
N1115      C1119   1.343       .  A
N1116      C1117   1.340       .  A
C1117      C1118   1.396       .  A
C1117      H1120   1.070       .  S
C1118      C1119   1.404       .  A
C1118      C1157   1.519       .  S
C1119      H1121   1.079       .  S
N1122      N1123   1.321       .  A
N1122      C1126   1.344       .  A
N1123      C1124   1.343       .  A
C1124      C1125   1.380       .  A
C1124      H1127   1.082   1_565  S
C1125      C1126   1.381       .  A
C1125      C1506   1.470       .  S
C1126      H1128   1.082       .  S
N1129      N1130   1.321       .  A
N1129      C1133   1.344       .  A
N1129     Cu1137   2.064       .  S
N1130      C1131   1.345       .  A
N1130     Cu1136   2.073       .  S
C1131      C1132   1.383       .  A
C1131      H1134   1.082       .  S
C1132      C1133   1.381       .  A
C1132      C1154   1.476       .  S
C1133      H1135   1.082       .  S
Cu1136     N1139   2.073       .  S
Cu1137     N1147   2.064       .  S
Cu1138     N1140   2.075       .  S
Cu1138     N1146   2.075       .  S
N1139      N1140   1.318       .  A
N1139      C1143   1.342       .  A
N1140      C1141   1.343       .  A
C1141      C1142   1.397       .  A
C1141      H1144   1.081       .  S
C1142      C1143   1.394       .  A
C1142      C1189   1.509       .  S
C1143      H1145   1.073       .  S
N1146      N1147   1.322       .  A
N1146      C1150   1.345       .  A
N1147      C1148   1.343       .  A
C1148      C1149   1.381       .  A
C1148      H1151   1.082       .  S
C1149      C1150   1.383       .  A
C1149      C1301   1.474       .  S
C1150      H1152   1.081       .  S
C1153      C1154   1.394       .  A
C1153      C1158   1.411       .  A
C1153      H1160   1.083       .  S
C1154      C1155   1.408       .  A
C1155      C1156   1.405       .  A
C1155      C1162   1.521       .  S
C1156      C1157   1.416       .  A
C1156      H1161   1.076       .  S
C1157      C1158   1.438       .  A
C1158      C1159   1.519       .  S
C1159      F1163   1.385       .  S
C1159      F1164   1.383       .  S
C1159      F1165   1.383       .  S
C1162      F1166   1.381       .  S
C1162      F1167   1.384       .  S
C1162      F1168   1.384       .  S
C1169      C1170   1.405       .  A
C1169      C1174   1.406       .  A
C1169      H1176   1.083       .  S
C1170      C1171   1.418       .  A
C1171      C1172   1.406       .  A
C1171      C1178   1.519       .  S
C1172      C1173   1.401       .  A
C1172      H1177   1.083       .  S
C1173      C1174   1.413       .  A
C1174      C1175   1.518       .  S
C1175      F1179   1.384       .  S
C1175      F1180   1.381   1_545  S
C1175      F1181   1.384       .  S
C1178      F1182   1.381       .  S
C1178      F1183   1.384       .  S
C1178      F1184   1.385       .  S
C1185      C1186   1.398       .  A
C1185      C1190   1.409       .  A
C1185      H1192   1.084       .  S
C1186      C1187   1.413       .  A
C1187      C1188   1.407       .  A
C1187      C1194   1.521       .  S
C1188      C1189   1.412       .  A
C1188      H1193   1.081       .  S
C1189      C1190   1.432       .  A
C1190      C1191   1.519       .  S
C1191      F1195   1.385       .  S
C1191      F1196   1.383       .  S
C1191      F1197   1.382       .  S
C1194      F1198   1.384       .  S
C1194      F1199   1.380       .  S
C1194      F1200   1.385       .  S
C1201      C1202   1.402       .  A
C1201      C1206   1.407       .  A
C1201      H1208   1.083       .  S
C1202      C1203   1.419       .  A
C1203      C1204   1.409       .  A
C1203      C1210   1.520       .  S
C1204      C1205   1.402       .  A
C1204      H1209   1.083       .  S
C1205      C1206   1.417       .  A
C1206      C1207   1.518       .  S
C1207      F1211   1.385       .  S
C1207      F1212   1.383       .  S
C1207      F1213   1.381       .  S
C1210      F1214   1.383       .  S
C1210      F1215   1.381       .  S
C1210      F1216   1.384       .  S
C1217      C1218   1.410       .  A
C1217      C1222   1.409       .  A
C1217      H1224   1.082       .  S
C1218      C1219   1.428       .  A
C1219      C1220   1.408       .  A
C1219      C1226   1.519       .  S
C1220      C1221   1.399       .  A
C1220      H1225   1.083       .  S
C1221      C1222   1.418       .  A
C1222      C1223   1.521       .  S
C1223      F1227   1.385       .  S
C1223      F1228   1.383       .  S
C1223      F1229   1.381       .  S
C1226      F1230   1.382       .  S
C1226      F1231   1.382       .  S
C1226      F1232   1.385       .  S
C1233      C1234   1.404       .  A
C1233      C1238   1.408       .  A
C1233      H1240   1.083       .  S
C1234      C1235   1.417       .  A
C1235      C1236   1.407       .  A
C1235      C1242   1.519       .  S
C1236      C1237   1.403       .  A
C1236      H1241   1.083       .  S
C1237      C1238   1.418       .  A
C1238      C1239   1.519       .  S
C1239      F1243   1.385       .  S
C1239      F1244   1.383       .  S
C1239      F1245   1.380       .  S
C1242      F1246   1.383   1_565  S
C1242      F1247   1.380   1_565  S
C1242      F1248   1.385       .  S
C1249      C1250   1.394       .  A
C1249      C1254   1.406       .  A
C1249      H1256   1.084       .  S
C1250      C1251   1.408       .  A
C1251      C1252   1.403       .  A
C1251      C1258   1.518       .  S
C1252      C1253   1.410       .  A
C1252      H1257   1.081       .  S
C1253      C1254   1.431       .  A
C1254      C1255   1.521       .  S
C1255      F1259   1.385       .  S
C1255      F1260   1.382       .  S
C1255      F1261   1.383       .  S
C1258      F1262   1.383       .  S
C1258      F1263   1.383       .  S
C1258      F1264   1.384       .  S
C1265      C1266   1.402       .  A
C1265      C1270   1.408       .  A
C1265      H1272   1.084       .  S
C1266      C1267   1.418       .  A
C1267      C1268   1.406       .  A
C1267      C1274   1.520       .  S
C1268      C1269   1.406       .  A
C1268      H1273   1.082       .  S
C1269      C1270   1.426       .  A
C1270      C1271   1.521       .  S
C1271      F1275   1.385       .  S
C1271      F1276   1.383       .  S
C1271      F1277   1.382       .  S
C1274      F1278   1.383       .  S
C1274      F1279   1.380       .  S
C1274      F1280   1.385       .  S
C1281      C1282   1.414       .  A
C1281      C1286   1.407       .  A
C1281      H1288   1.080       .  S
C1282      C1283   1.433       .  A
C1283      C1284   1.409       .  A
C1283      C1290   1.519       .  S
C1284      C1285   1.396       .  A
C1284      H1289   1.083       .  S
C1285      C1286   1.409       .  A
C1286      C1287   1.520       .  S
C1287      F1291   1.384       .  S
C1287      F1292   1.381       .  S
C1287      F1293   1.384       .  S
C1290      F1294   1.382       .  S
C1290      F1295   1.383       .  S
C1290      F1296   1.385       .  S
C1297      C1298   1.411       .  A
C1297      C1302   1.404       .  A
C1297      H1304   1.080       .  S
C1298      C1299   1.430       .  A
C1299      C1300   1.407       .  A
C1299      C1306   1.520       .  S
C1300      C1301   1.398       .  A
C1300      H1305   1.084       .  S
C1301      C1302   1.409       .  A
C1302      C1303   1.519       .  S
C1303      F1307   1.385       .  S
C1303      F1308   1.381       .  S
C1303      F1309   1.384       .  S
C1306      F1310   1.382       .  S
C1306      F1311   1.383       .  S
C1306      F1312   1.385       .  S
C1313      C1314   1.400       .  A
C1313      C1318   1.409       .  A
C1313      H1320   1.083       .  S
C1314      C1315   1.414       .  A
C1315      C1316   1.404       .  A
C1315      C1322   1.519       .  S
C1316      C1317   1.404       .  A
C1316      H1321   1.083       .  S
C1317      C1318   1.423       .  A
C1318      C1319   1.520       .  S
C1319      F1323   1.385       .  S
C1319      F1324   1.381       .  S
C1319      F1325   1.383       .  S
C1322      F1326   1.381       .  S
C1322      F1327   1.383       .  S
C1322      F1328   1.384       .  S
C1329      C1330   1.396       .  A
C1329      C1334   1.410       .  A
C1329      H1336   1.083       .  S
C1330      C1331   1.412       .  A
C1331      C1332   1.409       .  A
C1331      C1338   1.521       .  S
C1332      C1333   1.416       .  A
C1332      H1337   1.078       .  S
C1333      C1334   1.435       .  A
C1334      C1335   1.518       .  S
C1335      F1339   1.385       .  S
C1335      F1340   1.383       .  S
C1335      F1341   1.383       .  S
C1338      F1342   1.381       .  S
C1338      F1343   1.383       .  S
C1338      F1344   1.385       .  S
C1345      C1346   1.395       .  A
C1345      C1350   1.412       .  A
C1345      H1352   1.084       .  S
C1346      C1347   1.409       .  A
C1347      C1348   1.408       .  A
C1347      C1354   1.518       .  S
C1348      C1349   1.413       .  A
C1348      H1353   1.081       .  S
C1349      C1350   1.436       .  A
C1350      C1351   1.520       .  S
C1351      F1355   1.385       .  S
C1351      F1356   1.382       .  S
C1351      F1357   1.383       .  S
C1354      F1358   1.383       .  S
C1354      F1359   1.383       .  S
C1354      F1360   1.384       .  S
C1361      C1362   1.413       .  A
C1361      C1366   1.408       .  A
C1361      H1368   1.080       .  S
C1362      C1363   1.431       .  A
C1363      C1364   1.410       .  A
C1363      C1370   1.518       .  S
C1364      C1365   1.398       .  A
C1364      H1369   1.083       .  S
C1365      C1366   1.413       .  A
C1366      C1367   1.521       .  S
C1367      F1371   1.385       .  S
C1367      F1372   1.380       .  S
C1367      F1373   1.384       .  S
C1370      F1374   1.382       .  S
C1370      F1375   1.383       .  S
C1370      F1376   1.385       .  S
C1377      C1378   1.416       .  A
C1377      C1382   1.403       .  A
C1377      H1384   1.076       .  S
C1378      C1379   1.434       .  A
C1379      C1380   1.410       .  A
C1379      C1386   1.519       .  S
C1380      C1381   1.396       .  A
C1380      H1385   1.083       .  S
C1381      C1382   1.405       .  A
C1382      C1383   1.520       .  S
C1383      F1387   1.385       .  S
C1383      F1388   1.381       .  S
C1383      F1389   1.384       .  S
C1386      F1390   1.382       .  S
C1386      F1391   1.383       .  S
C1386      F1392   1.385       .  S
C1393      C1394   1.407       .  A
C1393      C1398   1.409       .  A
C1393      H1400   1.083       .  S
C1394      C1395   1.424       .  A
C1395      C1396   1.406       .  A
C1395      C1402   1.520       .  S
C1396      C1397   1.401       .  A
C1396      H1401   1.083       .  S
C1397      C1398   1.419       .  A
C1398      C1399   1.520       .  S
C1399      F1403   1.385       .  S
C1399      F1404   1.380       .  S
C1399      F1405   1.383       .  S
C1402      F1406   1.381       .  S
C1402      F1407   1.383       .  S
C1402      F1408   1.385       .  S
C1409      C1410   1.396       .  A
C1409      C1414   1.407       .  A
C1409      H1416   1.084       .  S
C1410      C1411   1.411       .  A
C1411      C1412   1.407       .  A
C1411      C1418   1.517       .  S
C1412      C1413   1.408       .  A
C1412      H1417   1.083       .  S
C1413      C1414   1.426       .  A
C1414      C1415   1.520       .  S
C1415      F1419   1.385       .  S
C1415      F1420   1.381       .  S
C1415      F1421   1.383       .  S
C1418      F1422   1.383       .  S
C1418      F1423   1.383       .  S
C1418      F1424   1.384       .  S
C1425      C1426   1.401       .  A
C1425      C1430   1.408       .  A
C1425      H1432   1.083       .  S
C1426      C1427   1.418       .  A
C1427      C1428   1.409       .  A
C1427      C1434   1.519       .  S
C1428      C1429   1.402       .  A
C1428      H1433   1.083       .  S
C1429      C1430   1.418       .  A
C1430      C1431   1.519       .  S
C1431      F1435   1.384       .  S
C1431      F1436   1.383       .  S
C1431      F1437   1.381       .  S
C1434      F1438   1.383       .  S
C1434      F1439   1.381       .  S
C1434      F1440   1.384       .  S
C1441      C1442   1.413       .  A
C1441      C1446   1.406       .  A
C1441      H1448   1.081       .  S
C1442      C1443   1.434       .  A
C1443      C1444   1.411       .  A
C1443      C1450   1.520       .  S
C1444      C1445   1.396       .  A
C1444      H1449   1.084       .  S
C1445      C1446   1.408       .  A
C1446      C1447   1.519       .  S
C1447      F1451   1.384       .  S
C1447      F1452   1.383       .  S
C1447      F1453   1.382       .  S
C1450      F1454   1.382       .  S
C1450      F1455   1.383       .  S
C1450      F1456   1.385       .  S
C1457      C1458   1.396       .  A
C1457      C1462   1.409       .  A
C1457      H1464   1.084       .  S
C1458      C1459   1.412       .  A
C1459      C1460   1.406       .  A
C1459      C1466   1.520       .  S
C1460      C1461   1.410       .  A
C1460      H1465   1.081       .  S
C1461      C1462   1.432       .  A
C1462      C1463   1.520       .  S
C1463      F1467   1.385       .  S
C1463      F1468   1.383       .  S
C1463      F1469   1.382       .  S
C1466      F1470   1.384       .  S
C1466      F1471   1.381       .  S
C1466      F1472   1.384       .  S
C1473      C1474   1.399       .  A
C1473      C1478   1.409       .  A
C1473      H1480   1.084       .  S
C1474      C1475   1.414       .  A
C1475      C1476   1.407       .  A
C1475      C1482   1.517       .  S
C1476      C1477   1.404       .  A
C1476      H1481   1.084       .  S
C1477      C1478   1.424       .  A
C1478      C1479   1.520       .  S
C1479      F1483   1.385       .  S
C1479      F1484   1.383       .  S
C1479      F1485   1.381       .  S
C1482      F1486   1.383       .  S
C1482      F1487   1.382       .  S
C1482      F1488   1.384       .  S
C1489      C1490   1.399       .  A
C1489      C1494   1.408       .  A
C1489      H1496   1.084       .  S
C1490      C1491   1.416       .  A
C1491      C1492   1.408       .  A
C1491      C1498   1.518       .  S
C1492      C1493   1.403       .  A
C1492      H1497   1.083       .  S
C1493      C1494   1.422       .  A
C1494      C1495   1.520       .  S
C1495      F1499   1.384       .  S
C1495      F1500   1.381       .  S
C1495      F1501   1.383       .  S
C1498      F1502   1.382       .  S
C1498      F1503   1.383       .  S
C1498      F1504   1.384       .  S
C1505      C1506   1.400       .  A
C1505      C1510   1.405   1_565  A
C1505      H1512   1.083       .  S
C1506      C1507   1.413       .  A
C1507      C1508   1.404   1_565  A
C1507      C1514   1.518       .  S
C1508      C1509   1.404       .  A
C1508      H1513   1.083       .  S
C1509      C1510   1.419       .  A
C1510      C1511   1.520       .  S
C1511      F1515   1.385       .  S
C1511      F1516   1.381       .  S
C1511      F1517   1.383       .  S
C1514      F1518   1.382       .  S
C1514      F1519   1.384       .  S
C1514      F1520   1.384       .  S
C1521      C1522   1.398       .  A
C1521      C1526   1.407       .  A
C1521      H1528   1.083       .  S
C1522      C1523   1.413       .  A
C1523      C1524   1.406       .  A
C1523      C1530   1.518       .  S
C1524      C1525   1.405       .  A
C1524      H1529   1.083       .  S
C1525      C1526   1.423       .  A
C1526      C1527   1.520       .  S
C1527      F1531   1.385       .  S
C1527      F1532   1.383       .  S
C1527      F1533   1.381       .  S
C1530      F1534   1.383       .  S
C1530      F1535   1.382       .  S
C1530      F1536   1.385       .  S
C1537      C1538   1.400       .  A
C1537      C1542   1.407   1_565  A
C1537      H1544   1.083       .  S
C1538      C1539   1.412       .  A
C1539      C1540   1.406       .  A
C1539      C1546   1.519       .  S
C1540      C1541   1.407   1_565  A
C1540      H1545   1.083       .  S
C1541      C1542   1.422       .  A
C1542      C1543   1.519       .  S
C1543      F1547   1.385       .  S
C1543      F1548   1.383       .  S
C1543      F1549   1.381       .  S
C1546      F1550   1.384       .  S
C1546      F1551   1.381       .  S
C1546      F1552   1.384       .  S
C1553      C1554   1.410       .  A
C1553      C1558   1.405       .  A
C1553      H1560   1.082       .  S
C1554      C1555   1.429       .  A
C1555      C1556   1.409       .  A
C1555      C1562   1.520       .  S
C1556      C1557   1.397       .  A
C1556      H1561   1.084       .  S
C1557      C1558   1.410       .  A
C1558      C1559   1.518       .  S
C1559      F1563   1.384       .  S
C1559      F1564   1.383       .  S
C1559      F1565   1.383       .  S
C1562      F1566   1.383       .  S
C1562      F1567   1.382       .  S
C1562      F1568   1.385       .  S
C1569      C1570   1.402       .  A
C1569      C1574   1.407       .  A
C1569      H1576   1.083       .  S
C1570      C1571   1.413       .  A
C1571      C1572   1.405       .  A
C1571      C1578   1.518       .  S
C1572      C1573   1.403       .  A
C1572      H1577   1.083       .  S
C1573      C1574   1.417       .  A
C1574      C1575   1.519       .  S
C1575      F1579   1.385       .  S
C1575      F1580   1.381       .  S
C1575      F1581   1.383       .  S
C1578      F1582   1.381       .  S
C1578      F1583   1.384       .  S
C1578      F1584   1.384       .  S
C1585      C1586   1.396       .  A
C1585      C1590   1.411       .  A
C1585      H1592   1.083       .  S
C1586      C1587   1.410       .  A
C1587      C1588   1.407       .  A
C1587      C1594   1.520       .  S
C1588      C1589   1.416       .  A
C1588      H1593   1.076       .  S
C1589      C1590   1.437       .  A
C1590      C1591   1.519       .  S
C1591      F1595   1.385       .  S
C1591      F1596   1.383       .  S
C1591      F1597   1.382       .  S
C1594      F1598   1.384       .  S
C1594      F1599   1.380       .  S
C1594      F1600   1.385       .  S
C1601      C1602   1.404       .  A
C1601      C1606   1.404       .  A
C1601      H1608   1.083       .  S
C1602      C1603   1.422       .  A
C1603      C1604   1.409       .  A
C1603      C1610   1.520       .  S
C1604      C1605   1.404       .  A
C1604      H1609   1.083       .  S
C1605      C1606   1.419       .  A
C1606      C1607   1.520       .  S
C1607      F1611   1.385       .  S
C1607      F1612   1.383       .  S
C1607      F1613   1.381       .  S
C1610      F1614   1.383       .  S
C1610      F1615   1.381       .  S
C1610      F1616   1.385       .  S
C1617      C1618   1.409   1_556  A
C1617      C1622   1.408       .  A
C1617      H1624   1.082       .  S
C1618      C1619   1.424       .  A
C1619      C1620   1.408   1_554  A
C1619      C1626   1.519       .  S
C1620      C1621   1.399       .  A
C1620      H1625   1.083       .  S
C1621      C1622   1.411       .  A
C1622      C1623   1.517       .  S
C1623      F1627   1.385       .  S
C1623      F1628   1.384       .  S
C1623      F1629   1.382       .  S
C1626      F1630   1.383       .  S
C1626      F1631   1.381       .  S
C1626      F1632   1.385       .  S
C1633      C1634   1.407       .  A
C1633      C1638   1.406       .  A
C1633      H1640   1.083       .  S
C1634      C1635   1.426       .  A
C1635      C1636   1.406       .  A
C1635      C1642   1.520       .  S
C1636      C1637   1.397       .  A
C1636      H1641   1.084       .  S
C1637      C1638   1.412       .  A
C1638      C1639   1.518       .  S
C1639      F1643   1.384       .  S
C1639      F1644   1.382       .  S
C1639      F1645   1.383       .  S
C1642      F1646   1.382       .  S
C1642      F1647   1.383       .  S
C1642      F1648   1.385       .  S
C1649      C1650   1.405       .  A
C1649      C1654   1.406       .  A
C1649      H1656   1.083       .  S
C1650      C1651   1.418       .  A
C1651      C1652   1.406       .  A
C1651      C1658   1.519       .  S
C1652      C1653   1.402       .  A
C1652      H1657   1.084       .  S
C1653      C1654   1.414       .  A
C1654      C1655   1.518       .  S
C1655      F1659   1.385       .  S
C1655      F1660   1.381       .  S
C1655      F1661   1.384       .  S
C1658      F1662   1.380       .  S
C1658      F1663   1.383       .  S
C1658      F1664   1.385       .  S
C1665      C1666   1.406       .  A
C1665      C1670   1.406       .  A
C1665      H1672   1.083       .  S
C1666      C1667   1.421       .  A
C1667      C1668   1.406       .  A
C1667      C1674   1.520       .  S
C1668      C1669   1.403       .  A
C1668      H1673   1.084       .  S
C1669      C1670   1.417       .  A
C1670      C1671   1.520       .  S
C1671      F1675   1.385       .  S
C1671      F1676   1.380       .  S
C1671      F1677   1.384       .  S
C1674      F1678   1.381       .  S
C1674      F1679   1.383       .  S
C1674      F1680   1.385       .  S
C1681      C1682   1.405       .  A
C1681      C1686   1.407       .  A
C1681      H1688   1.083       .  S
C1682      C1683   1.421       .  A
C1683      C1684   1.408       .  A
C1683      C1690   1.520       .  S
C1684      C1685   1.400       .  A
C1684      H1689   1.084       .  S
C1685      C1686   1.413       .  A
C1686      C1687   1.517       .  S
C1687      F1691   1.384       .  S
C1687      F1692   1.384       .  S
C1687      F1693   1.382       .  S
C1690      F1694   1.383       .  S
C1690      F1695   1.380       .  S
C1690      F1696   1.385       .  S
C1697      C1698   1.400       .  A
C1697      C1702   1.406       .  A
C1697      H1704   1.084       .  S
C1698      C1699   1.417       .  A
C1699      C1700   1.407       .  A
C1699      C1706   1.520       .  S
C1700      C1701   1.406       .  A
C1700      H1705   1.083       .  S
C1701      C1702   1.424       .  A
C1702      C1703   1.520       .  S
C1703      F1707   1.385       .  S
C1703      F1708   1.383       .  S
C1703      F1709   1.381       .  S
C1706      F1710   1.384       .  S
C1706      F1711   1.380       .  S
C1706      F1712   1.385       .  S
C1713      C1714   1.403       .  A
C1713      C1718   1.409       .  A
C1713      H1720   1.083       .  S
C1714      C1715   1.418       .  A
C1715      C1716   1.406   1_556  A
C1715      C1722   1.519       .  S
C1716      C1717   1.400   1_554  A
C1716      H1721   1.083       .  S
C1717      C1718   1.417       .  A
C1718      C1719   1.519       .  S
C1719      F1723   1.384       .  S
C1719      F1724   1.383       .  S
C1719      F1725   1.382       .  S
C1722      F1726   1.383       .  S
C1722      F1727   1.381       .  S
C1722      F1728   1.384   1_556  S
C1729      C1730   1.408       .  A
C1729      C1734   1.406       .  A
C1729      H1736   1.083       .  S
C1730      C1731   1.423       .  A
C1731      C1732   1.408       .  A
C1731      C1738   1.519       .  S
C1732      C1733   1.399       .  A
C1732      H1737   1.084       .  S
C1733      C1734   1.410       .  A
C1734      C1735   1.517       .  S
C1735      F1739   1.384       .  S
C1735      F1740   1.382       .  S
C1735      F1741   1.384       .  S
C1738      F1742   1.381       .  S
C1738      F1743   1.384       .  S
C1738      F1744   1.385       .  S
C1745      C1746   1.402       .  A
C1745      C1750   1.406       .  A
C1745      H1752   1.083       .  S
C1746      C1747   1.416       .  A
C1747      C1748   1.405       .  A
C1747      C1754   1.520       .  S
C1748      C1749   1.403       .  A
C1748      H1753   1.083       .  S
C1749      C1750   1.418       .  A
C1750      C1751   1.519       .  S
C1751      F1755   1.384       .  S
C1751      F1756   1.384       .  S
C1751      F1757   1.381       .  S
C1754      F1758   1.383       .  S
C1754      F1759   1.381       .  S
C1754      F1760   1.385       .  S
C1761      C1762   1.405       .  A
C1761      C1766   1.406       .  A
C1761      H1768   1.083       .  S
C1762      C1763   1.425       .  A
C1763      C1764   1.409       .  A
C1763      C1770   1.520       .  S
C1764      C1765   1.398       .  A
C1764      H1769   1.083       .  S
C1765      C1766   1.412       .  A
C1766      C1767   1.517       .  S
C1767      F1771   1.384       .  S
C1767      F1772   1.383       .  S
C1767      F1773   1.383       .  S
C1770      F1774   1.381       .  S
C1770      F1775   1.383       .  S
C1770      F1776   1.385       .  S
C1777      C1778   1.400       .  A
C1777      C1782   1.407       .  A
C1777      H1784   1.084       .  S
C1778      C1779   1.417       .  A
C1779      C1780   1.407       .  A
C1779      C1786   1.519       .  S
C1780      C1781   1.402       .  A
C1780      H1785   1.084       .  S
C1781      C1782   1.419       .  A
C1782      C1783   1.519       .  S
C1783      F1787   1.384       .  S
C1783      F1788   1.383       .  S
C1783      F1789   1.381       .  S
C1786      F1790   1.383       .  S
C1786      F1791   1.381       .  S
C1786      F1792   1.384       .  S
C1793      C1794   1.401       .  A
C1793      C1798   1.405       .  A
C1793      H1800   1.084   1_554  S
C1794      C1795   1.418       .  A
C1795      C1796   1.404       .  A
C1795      C1802   1.520       .  S
C1796      C1797   1.404       .  A
C1796      H1801   1.083       .  S
C1797      C1798   1.421       .  A
C1798      C1799   1.520   1_554  S
C1799      F1803   1.385       .  S
C1799      F1804   1.383   1_556  S
C1799      F1805   1.381       .  S
C1802      F1806   1.384       .  S
C1802      F1807   1.380       .  S
C1802      F1808   1.385       .  S
C1809      C1810   1.406       .  A
C1809      C1814   1.405       .  A
C1809      H1816   1.082       .  S
C1810      C1811   1.424       .  A
C1811      C1812   1.408       .  A
C1811      C1818   1.520       .  S
C1812      C1813   1.403       .  A
C1812      H1817   1.084       .  S
C1813      C1814   1.416       .  A
C1814      C1815   1.520       .  S
C1815      F1819   1.385       .  S
C1815      F1820   1.380       .  S
C1815      F1821   1.384       .  S
C1818      F1822   1.381       .  S
C1818      F1823   1.383       .  S
C1818      F1824   1.385       .  S
C1825      C1826   1.402       .  A
C1825      C1830   1.406       .  A
C1825      H1832   1.083   1_554  S
C1826      C1827   1.419       .  A
C1827      C1828   1.406       .  A
C1827      C1834   1.520       .  S
C1828      C1829   1.403       .  A
C1828      H1833   1.083       .  S
C1829      C1830   1.421       .  A
C1830      C1831   1.521   1_554  S
C1831      F1835   1.385       .  S
C1831      F1836   1.380       .  S
C1831      F1837   1.383       .  S
C1834      F1838   1.381       .  S
C1834      F1839   1.384       .  S
C1834      F1840   1.385       .  S
C1841      C1842   1.410       .  A
C1841      C1846   1.405       .  A
C1841      H1848   1.082       .  S
C1842      C1843   1.429       .  A
C1843      C1844   1.408       .  A
C1843      C1850   1.520       .  S
C1844      C1845   1.397       .  A
C1844      H1849   1.084       .  S
C1845      C1846   1.408       .  A
C1846      C1847   1.517       .  S
C1847      F1851   1.384       .  S
C1847      F1852   1.383       .  S
C1847      F1853   1.383       .  S
C1850      F1854   1.383       .  S
C1850      F1855   1.382       .  S
C1850      F1856   1.385       .  S
C1857      C1858   1.397       .  A
C1857      C1862   1.409       .  A
C1857      H1864   1.084       .  S
C1858      C1859   1.411       .  A
C1859      C1860   1.405       .  A
C1859      C1866   1.521       .  S
C1860      C1861   1.414       .  A
C1860      H1865   1.078       .  S
C1861      C1862   1.434       .  A
C1862      C1863   1.520       .  S
C1863      F1867   1.385       .  S
C1863      F1868   1.383       .  S
C1863      F1869   1.382       .  S
C1866      F1870   1.384       .  S
C1866      F1871   1.380       .  S
C1866      F1872   1.384       .  S
C1873      C1874   1.406       .  A
C1873      C1878   1.404       .  A
C1873      H1880   1.082       .  S
C1874      C1875   1.428       .  A
C1875      C1876   1.408       .  A
C1875      C1882   1.521       .  S
C1876      C1877   1.400       .  A
C1876      H1881   1.084       .  S
C1877      C1878   1.416       .  A
C1878      C1879   1.520       .  S
C1879      F1883   1.385       .  S
C1879      F1884   1.383       .  S
C1879      F1885   1.381       .  S
C1882      F1886   1.383       .  S
C1882      F1887   1.382       .  S
C1882      F1888   1.385       .  S
C1889      C1890   1.409       .  A
C1889      C1894   1.407       .  A
C1889      H1896   1.083       .  S
C1890      C1891   1.428       .  A
C1891      C1892   1.409       .  A
C1891      C1898   1.520       .  S
C1892      C1893   1.401       .  A
C1892      H1897   1.083   1_556  S
C1893      C1894   1.418       .  A
C1894      C1895   1.521       .  S
C1895      F1899   1.385       .  S
C1895      F1900   1.383   1_556  S
C1895      F1901   1.381       .  S
C1898      F1902   1.383       .  S
C1898      F1903   1.382       .  S
C1898      F1904   1.385       .  S
C1905      C1906   1.417       .  A
C1905      C1910   1.408       .  A
C1905      H1912   1.076       .  S
C1906      C1907   1.439       .  A
C1907      C1908   1.411       .  A
C1907      C1914   1.519       .  S
C1908      C1909   1.393       .  A
C1908      H1913   1.083       .  S
C1909      C1910   1.408       .  A
C1910      C1911   1.520       .  S
C1911      F1915   1.384       .  S
C1911      F1916   1.381       .  S
C1911      F1917   1.384       .  S
C1914      F1918   1.383       .  S
C1914      F1919   1.383       .  S
C1914      F1920   1.385       .  S
C1921      C1922   1.405       .  A
C1921      C1926   1.406       .  A
C1921      H1928   1.083       .  S
C1922      C1923   1.426       .  A
C1923      C1924   1.407       .  A
C1923      C1930   1.521       .  S
C1924      C1925   1.399       .  A
C1924      H1929   1.084       .  S
C1925      C1926   1.417       .  A
C1926      C1927   1.520       .  S
C1927      F1931   1.384       .  S
C1927      F1932   1.380       .  S
C1927      F1933   1.384       .  S
C1930      F1934   1.382       .  S
C1930      F1935   1.383       .  S
C1930      F1936   1.385       .  S
C1937      C1938   1.398       .  A
C1937      C1942   1.406       .  A
C1937      H1944   1.084       .  S
C1938      C1939   1.415   1_655  A
C1939      C1940   1.406       .  A
C1939      C1946   1.519       .  S
C1940      C1941   1.406       .  A
C1940      H1945   1.083       .  S
C1941      C1942   1.426   1_455  A
C1942      C1943   1.521       .  S
C1943      F1947   1.385       .  S
C1943      F1948   1.383       .  S
C1943      F1949   1.381       .  S
C1946      F1950   1.384       .  S
C1946      F1951   1.381       .  S
C1946      F1952   1.385       .  S
C1953      C1954   1.404       .  A
C1953      C1958   1.409       .  A
C1953      H1960   1.084       .  S
C1954      C1955   1.420       .  A
C1955      C1956   1.406       .  A
C1955      C1962   1.520       .  S
C1956      C1957   1.405       .  A
C1956      H1961   1.083       .  S
C1957      C1958   1.424       .  A
C1958      C1959   1.521       .  S
C1959      F1963   1.385       .  S
C1959      F1964   1.381       .  S
C1959      F1965   1.383       .  S
C1962      F1966   1.381       .  S
C1962      F1967   1.383       .  S
C1962      F1968   1.385       .  S
C1969      C1970   1.404       .  A
C1969      C1974   1.404       .  A
C1969      H1976   1.083       .  S
C1970      C1971   1.417       .  A
C1971      C1972   1.405       .  A
C1971      C1978   1.520       .  S
C1972      C1973   1.405       .  A
C1972      H1977   1.083       .  S
C1973      C1974   1.417       .  A
C1974      C1975   1.520       .  S
C1975      F1979   1.385       .  S
C1975      F1980   1.383       .  S
C1975      F1981   1.380       .  S
C1978      F1982   1.383       .  S
C1978      F1983   1.380       .  S
C1978      F1984   1.385       .  S
C1985      C1986   1.414   1_455  A
C1985      C1990   1.406       .  A
C1985      H1992   1.080       .  S
C1986      C1987   1.432       .  A
C1987      C1988   1.409       .  A
C1987      C1994   1.520       .  S
C1988      C1989   1.397   1_655  A
C1988      H1993   1.084       .  S
C1989      C1990   1.409       .  A
C1990      C1991   1.519       .  S
C1991      F1995   1.385       .  S
C1991      F1996   1.381       .  S
C1991      F1997   1.384       .  S
C1994      F1998   1.382       .  S
C1994      F1999   1.383       .  S
C1994      F2000   1.385       .  S
C2001      C2002   1.399       .  A
C2001      C2006   1.411       .  A
C2001      H2008   1.084       .  S
C2002      C2003   1.415       .  A
C2003      C2004   1.405       .  A
C2003      C2010   1.521       .  S
C2004      C2005   1.409       .  A
C2004      H2009   1.081       .  S
C2005      C2006   1.431       .  A
C2006      C2007   1.520       .  S
C2007      F2011   1.385       .  S
C2007      F2012   1.383       .  S
C2007      F2013   1.382       .  S
C2010      F2014   1.384       .  S
C2010      F2015   1.380       .  S
C2010      F2016   1.385       .  S
C2017      C2018   1.401       .  A
C2017      C2022   1.405       .  A
C2017      H2024   1.083       .  S
C2018      C2019   1.415       .  A
C2019      C2020   1.405       .  A
C2019      C2026   1.519       .  S
C2020      C2021   1.403       .  A
C2020      H2025   1.083       .  S
C2021      C2022   1.418       .  A
C2022      C2023   1.519       .  S
C2023      F2027   1.385       .  S
C2023      F2028   1.383       .  S
C2023      F2029   1.381       .  S
C2026      F2030   1.383       .  S
C2026      F2031   1.380       .  S
C2026      F2032   1.385       .  S
C2033      C2034   1.408       .  A
C2033      C2038   1.404       .  A
C2033      H2040   1.082       .  S
C2034      C2035   1.429       .  A
C2035      C2036   1.410       .  A
C2035      C2042   1.520       .  S
C2036      C2037   1.398       .  A
C2036      H2041   1.083       .  S
C2037      C2038   1.410       .  A
C2038      C2039   1.518       .  S
C2039      F2043   1.384       .  S
C2039      F2044   1.383       .  S
C2039      F2045   1.383       .  S
C2042      F2046   1.381       .  S
C2042      F2047   1.383       .  S
C2042      F2048   1.385       .  S
C2049      C2050   1.409       .  A
C2049      C2054   1.405       .  A
C2049      H2056   1.082       .  S
C2050      C2051   1.430       .  A
C2051      C2052   1.410       .  A
C2051      C2058   1.520       .  S
C2052      C2053   1.397       .  A
C2052      H2057   1.084       .  S
C2053      C2054   1.410       .  A
C2054      C2055   1.518       .  S
C2055      F2059   1.384       .  S
C2055      F2060   1.383       .  S
C2055      F2061   1.383       .  S
C2058      F2062   1.383       .  S
C2058      F2063   1.382       .  S
C2058      F2064   1.385       .  S
C2065      C2066   1.401       .  A
C2065      C2070   1.405       .  A
C2065      H2072   1.083       .  S
C2066      C2067   1.415       .  A
C2067      C2068   1.404       .  A
C2067      C2074   1.518       .  S
C2068      C2069   1.402       .  A
C2068      H2073   1.083       .  S
C2069      C2070   1.418       .  A
C2070      C2071   1.520       .  S
C2071      F2075   1.385       .  S
C2071      F2076   1.380       .  S
C2071      F2077   1.383       .  S
C2074      F2078   1.381       .  S
C2074      F2079   1.383       .  S
C2074      F2080   1.385       .  S
C2081      C2082   1.397       .  A
C2081      C2086   1.408       .  A
C2081      H2088   1.084       .  S
C2082      C2083   1.409       .  A
C2083      C2084   1.407       .  A
C2083      C2090   1.517       .  S
C2084      C2085   1.411       .  A
C2084      H2089   1.082       .  S
C2085      C2086   1.428       .  A
C2086      C2087   1.520   1_655  S
C2087      F2091   1.385       .  S
C2087      F2092   1.383       .  S
C2087      F2093   1.382       .  S
C2090      F2094   1.383       .  S
C2090      F2095   1.383       .  S
C2090      F2096   1.385       .  S
C2097      C2098   1.395       .  A
C2097      C2102   1.410       .  A
C2097      H2104   1.083       .  S
C2098      C2099   1.409       .  A
C2099      C2100   1.408       .  A
C2099      C2106   1.520       .  S
C2100      C2101   1.416       .  A
C2100      H2105   1.078       .  S
C2101      C2102   1.436       .  A
C2102      C2103   1.519       .  S
C2103      F2107   1.385       .  S
C2103      F2108   1.382       .  S
C2103      F2109   1.383       .  S
C2106      F2110   1.384       .  S
C2106      F2111   1.381       .  S
C2106      F2112   1.384       .  S
C2113      C2114   1.398       .  A
C2113      C2118   1.406       .  A
C2113      H2120   1.084       .  S
C2114      C2115   1.415   1_455  A
C2115      C2116   1.404       .  A
C2115      C2122   1.521       .  S
C2116      C2117   1.407       .  A
C2116      H2121   1.082       .  S
C2117      C2118   1.427   1_655  A
C2118      C2119   1.520       .  S
C2119      F2123   1.385       .  S
C2119      F2124   1.383       .  S
C2119      F2125   1.382       .  S
C2122      F2126   1.384       .  S
C2122      F2127   1.380       .  S
C2122      F2128   1.385       .  S
C2129      C2130   1.414       .  A
C2129      C2134   1.406       .  A
C2129      H2136   1.080       .  S
C2130      C2131   1.435   1_565  A
C2131      C2132   1.408       .  A
C2131      C2138   1.519       .  S
C2132      C2133   1.394       .  A
C2132      H2137   1.084       .  S
C2133      C2134   1.409   1_545  A
C2134      C2135   1.520       .  S
C2135      F2139   1.384       .  S
C2135      F2140   1.381       .  S
C2135      F2141   1.384       .  S
C2138      F2142   1.383       .  S
C2138      F2143   1.383       .  S
C2138      F2144   1.385       .  S
C2145      C2146   1.397       .  A
C2145      C2150   1.410       .  A
C2145      H2152   1.083       .  S
C2146      C2147   1.412       .  A
C2147      C2148   1.405       .  A
C2147      C2154   1.520       .  S
C2148      C2149   1.410       .  A
C2148      H2153   1.080       .  S
C2149      C2150   1.433       .  A
C2150      C2151   1.521       .  S
C2151      F2155   1.385       .  S
C2151      F2156   1.383       .  S
C2151      F2157   1.382       .  S
C2154      F2158   1.384       .  S
C2154      F2159   1.380       .  S
C2154      F2160   1.384       .  S
C2161      C2162   1.402   1_545  A
C2161      C2166   1.408       .  A
C2161      H2168   1.083       .  S
C2162      C2163   1.415       .  A
C2163      C2164   1.404       .  A
C2163      C2170   1.520       .  S
C2164      C2165   1.407   1_565  A
C2164      H2169   1.082       .  S
C2165      C2166   1.424       .  A
C2166      C2167   1.520       .  S
C2167      F2171   1.385       .  S
C2167      F2172   1.383       .  S
C2167      F2173   1.381       .  S
C2170      F2174   1.383       .  S
C2170      F2175   1.380       .  S
C2170      F2176   1.385       .  S
C2177      C2178   1.407       .  A
C2177      C2182   1.405       .  A
C2177      H2184   1.082   1_554  S
C2178      C2179   1.425       .  A
C2179      C2180   1.406       .  A
C2179      C2186   1.521       .  S
C2180      C2181   1.399       .  A
C2180      H2185   1.084       .  S
C2181      C2182   1.414       .  A
C2182      C2183   1.520       .  S
C2183      F2187   1.384   1_554  S
C2183      F2188   1.380   1_554  S
C2183      F2189   1.384       .  S
C2186      F2190   1.381       .  S
C2186      F2191   1.383       .  S
C2186      F2192   1.385       .  S
C2193      C2194   1.393       .  A
C2193      C2198   1.409       .  A
C2193      H2200   1.083       .  S
C2194      C2195   1.408       .  A
C2195      C2196   1.408       .  A
C2195      C2202   1.520       .  S
C2196      C2197   1.417       .  A
C2196      H2201   1.077       .  S
C2197      C2198   1.437       .  A
C2198      C2199   1.519       .  S
C2199      F2203   1.385       .  S
C2199      F2204   1.383       .  S
C2199      F2205   1.383   1_565  S
C2202      F2206   1.384       .  S
C2202      F2207   1.382       .  S
C2202      F2208   1.385       .  S
C2209      C2210   1.400       .  A
C2209      C2214   1.406       .  A
C2209      H2216   1.083       .  S
C2210      C2211   1.417       .  A
C2211      C2212   1.408       .  A
C2211      C2218   1.519       .  S
C2212      C2213   1.403       .  A
C2212      H2217   1.083       .  S
C2213      C2214   1.419       .  A
C2214      C2215   1.519       .  S
C2215      F2219   1.385       .  S
C2215      F2220   1.383       .  S
C2215      F2221   1.381       .  S
C2218      F2222   1.383       .  S
C2218      F2223   1.381       .  S
C2218      F2224   1.385       .  S
C2225      C2226   1.402       .  A
C2225      C2230   1.407       .  A
C2225      H2232   1.083       .  S
C2226      C2227   1.417       .  A
C2227      C2228   1.404       .  A
C2227      C2234   1.521       .  S
C2228      C2229   1.405       .  A
C2228      H2233   1.083   1_554  S
C2229      C2230   1.423       .  A
C2230      C2231   1.520       .  S
C2231      F2235   1.385       .  S
C2231      F2236   1.383       .  S
C2231      F2237   1.381       .  S
C2234      F2238   1.384       .  S
C2234      F2239   1.380   1_554  S
C2234      F2240   1.385   1_554  S
C2241      C2242   1.405       .  A
C2241      C2246   1.407       .  A
C2241      H2248   1.083       .  S
C2242      C2243   1.421       .  A
C2243      C2244   1.408       .  A
C2243      C2250   1.520       .  S
C2244      C2245   1.405       .  A
C2244      H2249   1.083       .  S
C2245      C2246   1.421       .  A
C2246      C2247   1.520       .  S
C2247      F2251   1.385       .  S
C2247      F2252   1.380       .  S
C2247      F2253   1.383       .  S
C2250      F2254   1.381       .  S
C2250      F2255   1.383       .  S
C2250      F2256   1.385       .  S
C2257      C2258   1.407   1_655  A
C2257      C2262   1.405       .  A
C2257      H2264   1.082       .  S
C2258      C2259   1.427       .  A
C2259      C2260   1.408       .  A
C2259      C2266   1.520       .  S
C2260      C2261   1.398       .  A
C2260      H2265   1.084       .  S
C2261      C2262   1.414   1_455  A
C2262      C2263   1.520       .  S
C2263      F2267   1.385       .  S
C2263      F2268   1.380       .  S
C2263      F2269   1.384       .  S
C2266      F2270   1.381       .  S
C2266      F2271   1.383       .  S
C2266      F2272   1.385       .  S
C2273      C2274   1.395       .  A
C2273      C2278   1.410   1_556  A
C2273      H2280   1.083       .  S
C2274      C2275   1.408       .  A
C2275      C2276   1.408       .  A
C2275      C2282   1.521       .  S
C2276      C2277   1.418   1_556  A
C2276      H2281   1.076       .  S
C2277      C2278   1.436       .  A
C2278      C2279   1.518       .  S
C2279      F2283   1.385       .  S
C2279      F2284   1.383       .  S
C2279      F2285   1.383       .  S
C2282      F2286   1.384       .  S
C2282      F2287   1.381       .  S
C2282      F2288   1.385       .  S
C2289      C2290   1.401       .  A
C2289      C2294   1.408       .  A
C2289      H2296   1.084       .  S
C2290      C2291   1.412       .  A
C2291      C2292   1.406       .  A
C2291      C2298   1.518       .  S
C2292      C2293   1.405       .  A
C2292      H2297   1.083       .  S
C2293      C2294   1.420       .  A
C2294      C2295   1.520       .  S
C2295      F2299   1.385       .  S
C2295      F2300   1.384       .  S
C2295      F2301   1.380       .  S
C2298      F2302   1.384       .  S
C2298      F2303   1.382   1_455  S
C2298      F2304   1.384       .  S
