geometry optimzed in LAMMPS
_audit_creation_date              2020-11-30 
_audit_creation_method            'lammps2cif' 
_symmetry_space_group_name_H-M    'P1' 
_symmetry_Int_Tables_number       1 
_symmetry_cell_setting            triclinic 
loop_ 
_symmetry_equiv_pos_as_xyz 
  x,y,z 
_cell_length_a                    30.56245024 
_cell_length_b                    30.569260250580065 
_cell_length_c                    37.795552097476644 
_cell_angle_alpha                 90.43438045248384 
_cell_angle_beta                  89.52987105207238 
_cell_angle_gamma                 119.58045101184366 
loop_ 
_atom_site_label 
_atom_site_type_symbol 
_atom_site_fract_x 
_atom_site_fract_y 
_atom_site_fract_z 
_atom_site_charge 
C1          C  0.03733915  0.06953078  0.24968882     0.03400
C2          C  0.08246781  0.09387468  0.23047774    -0.12700
C3          C  0.11389215  0.14602156  0.23253905     0.01000
C4          C  0.09851064  0.17533159  0.25216679    -0.11200
C5          C  0.05256172  0.15176837  0.27085750     0.03400
C6          C  0.02278625  0.09901818  0.26982428    -0.10600
H7          H  0.09408217  0.07197407  0.21424956     0.09000
H8          H  0.12285422  0.21568320  0.25396001     0.06600
H9          H  0.48969916  0.08084237  0.28652549     0.06400
C10         C  0.08783542  0.42683297  0.42440632     0.03400
C11         C  0.13388919  0.44255947  0.44108600    -0.12700
C12         C  0.15612774  0.41182839  0.44117542     0.01000
C13         C  0.13272522  0.36562084  0.42266888    -0.11200
C14         C  0.08676136  0.35016821  0.40520371     0.03400
C15         C  0.06460634  0.38080420  0.40653413    -0.10600
H16         H  0.15138630  0.47813229  0.45520850     0.09000
H17         H  0.14936190  0.34147597  0.42256971     0.06600
H18         H  0.02885793  0.36873181  0.39361799     0.06400
C19         C  0.43374842  0.35152972  0.26391377     0.03400
C20         C  0.45351056  0.32855815  0.28557771    -0.12700
C21         C  0.43078608  0.27603567  0.28761947     0.01000
C22         C  0.38549927  0.24576772  0.26955872    -0.11200
C23         C  0.36404258  0.26843851  0.24897912     0.03400
C24         C  0.38865960  0.32105802  0.24612192    -0.10600
H25         H  0.48714878  0.35162068  0.30081294     0.09000
H26         H  0.36791422  0.20516209  0.27077276     0.06600
H27         H  0.37371987  0.33834128  0.22860117     0.06400
In28       In  0.00810193  0.22188793  0.34498382     1.36900
C29         C  0.47869111  0.14869348  0.39225704     0.77900
O30         O  0.49237150  0.16136599  0.30587021    -0.60500
O31         O  0.06703196  0.22279742  0.30765911    -0.52400
C32         C  0.45708275  0.25450425  0.30726209     0.70600
O33         O  0.43498229  0.21411369  0.32469405    -0.46300
C34         C  0.06002442  0.30235534  0.38554021     0.75300
O35         O  0.44868296  0.16235721  0.38057274    -0.58200
O36         O  0.08173415  0.28454507  0.36651312    -0.48300
O37         O  0.02336040  0.17457690  0.38139542    -0.54600
C38         C  0.03700929  0.18008600  0.29480199     0.85500
O39         O  0.00446535  0.27655960  0.30846474    -0.56500
O40         O  0.01260499  0.27765887  0.38480688    -0.59800
C41         C  0.12118479  0.48907199  0.10495834     0.03400
C42         C  0.14555014  0.03430086  0.12398427    -0.12700
C43         C  0.19788461  0.06506467  0.12254267     0.01000
C44         C  0.22717105  0.04940096  0.10309849    -0.11200
C45         C  0.20346445  0.50360979  0.08423463     0.03400
C46         C  0.15067776  0.47421088  0.08509939    -0.10600
H47         H  0.12358935  0.04620692  0.13989142     0.09000
H48         H  0.26763293  0.07328296  0.10173311     0.06600
H49         H  0.13247854  0.44088987  0.06866173     0.06400
C50         C  0.40279138  0.38245329  0.09188422     0.03400
C51         C  0.37925094  0.40109119  0.06978752    -0.12700
C52         C  0.32672458  0.37865614  0.06860197     0.01000
C53         C  0.29683940  0.33404072  0.08749952    -0.11200
C54         C  0.31998413  0.31316260  0.10822188     0.03400
C55         C  0.37272583  0.33793055  0.11052352    -0.10600
H56         H  0.40191449  0.43396936  0.05372969     0.09000
H57         H  0.25620894  0.31658141  0.08683099     0.06600
H58         H  0.39037873  0.32361206  0.12823782     0.06400
In59       In  0.24776876  0.19674498  0.17869603     1.36900
C60         C  0.29087243  0.26843955  0.13050135     0.77900
O61         O  0.29342263  0.25824934  0.21614245    -0.60500
O62         O  0.30495892  0.19520015  0.21581914    -0.51500
C63         C  0.16354669  0.16741809  0.21536832     0.70600
O64         O  0.18406315  0.20843110  0.19867603    -0.46300
C65         C  0.21950156  0.11415644  0.14048886     0.75300
O66         O  0.24706625  0.25467648  0.14199796    -0.58200
O67         O  0.25858028  0.13228395  0.15932389    -0.48300
O68         O  0.30994627  0.24284297  0.14158361    -0.54600
C69         C  0.31891816  0.23907441  0.22720062     0.85500
O70         O  0.18769752  0.14384381  0.21484284    -0.56500
O71         O  0.19753987  0.13986400  0.13982788    -0.59800
C72         C  0.47825296  0.03557261  0.43121753     0.03400
C73         C  0.43253288  0.01259716  0.44953439    -0.12700
C74         C  0.40203066  0.03488810  0.45106001     0.01000
C75         C  0.41732071  0.08071423  0.43344966    -0.11200
C76         C  0.46319118  0.10382720  0.41451158     0.03400
C77         C  0.99375269  0.08139942  0.41426091    -0.10600
H78         H  0.42060382  0.47698733  0.46263130     0.09000
H79         H  0.39328116  0.09747307  0.43378172     0.06600
H80         H  0.02905293  0.09862809  0.39976051     0.06400
In81       In  0.27349200  0.45691133  0.01129955     1.36900
C82         C  0.20089472  0.42742122  0.46354977     0.77900
O83         O  0.21280803  0.44251082  0.05009482    -0.60500
O84         O  0.27453353  0.01687771  0.04774658    -0.51500
C85         C  0.30513667  0.40511792  0.04921299     0.70600
O86         O  0.26457968  0.38333699  0.03199376    -0.46300
C87         C  0.35437102  0.00842879  0.47092372     0.75300
O88         O  0.21428287  0.39741252  0.47562925    -0.58200
O89         O  0.33751246  0.03031495  0.49065840    -0.48300
O90         O  0.22682187  0.47214889  0.47423705    -0.54600
C91         C  0.23169948  0.48736762  0.06068304     0.85500
O92         O  0.32756586  0.45248280  0.04790134    -0.56500
O93         O  0.32871653  0.46105954  0.47098523    -0.59800
C94         C  0.45858977  0.41011767  0.09631464     0.00200
C95         C  0.48447722  0.38287988  0.09852757    -0.11700
C96         C  0.03672949  0.40729258  0.10312242     0.02400
C97         C  0.06496885  0.46048722  0.10329614     0.00100
C98         C  0.03888255  0.48759301  0.10138426    -0.11600
C99         C  0.48645514  0.46316422  0.09931568     0.02300
H100        H  0.46383262  0.34217525  0.09693639     0.15300
H101        H  0.05941162  0.02835416  0.10159046     0.15300
C102        C  0.46246683  0.49366136  0.10216302     0.36900
C103        C  0.05968040  0.37654284  0.10914010     0.36800
N104        N  0.44313549  0.51795890  0.10448692    -0.43400
N105        N  0.07785070  0.35171165  0.11407018    -0.43400
C106        C  0.06258456  0.45744251  0.42657585     0.00200
C107        C  0.04786944  0.47062501  0.39517080    -0.11700
C108        C  0.02078032  0.99644873  0.39611903     0.02400
C109        C  0.00890200  0.01042006  0.42895472     0.00100
C110        C  0.02379091  0.49745347  0.46034721    -0.11600
C111        C  0.04997868  0.47073600  0.45942130     0.02300
H112        H  0.05652014  0.45959705  0.36986437     0.15300
H113        H  0.01380826  0.50717891  0.48566274     0.15300
C114        C  0.06015118  0.45420512  0.49243354     0.36900
C115        C  0.00250299  0.00498593  0.36326990     0.36800
N116        N  0.06788874  0.44035167  0.01878652    -0.43400
N117        N  0.98723549  0.01149065  0.33710737    -0.43400
C118        C  0.46048855  0.40719567  0.25917227     0.00200
C119        C  0.43250904  0.43241798  0.25778887    -0.11700
C120        C  0.45607006  0.48456810  0.25287725     0.02400
C121        C  0.00923434  0.01336729  0.25172031     0.00100
C122        C  0.03699056  0.48788427  0.25298484    -0.11600
C123        C  0.51329567  0.43556225  0.25503353     0.02300
H124        H  0.39188552  0.41131668  0.26023122     0.15300
H125        H  0.07773480  0.00876702  0.25214214     0.15300
C126        C  0.04418027  0.41221650  0.25061205     0.36900
C127        C  0.42442540  0.00672109  0.24763261     0.36800
N128        N  0.06896985  0.39362942  0.24679992    -0.43400
N129        N  0.39874204  0.02409291  0.24332918    -0.43400
C130        C  0.03733915  0.06953074  0.74968868     0.03400
C131        C  0.08246787  0.09387472  0.73047763    -0.12700
C132        C  0.11389207  0.14602142  0.73253884     0.01000
C133        C  0.09851060  0.17533142  0.75216670    -0.11200
C134        C  0.05256155  0.15176816  0.77085745     0.03400
C135        C  0.02278611  0.09901802  0.76982418    -0.10600
H136        H  0.09408225  0.07197376  0.71424888     0.09000
H137        H  0.12285391  0.21568274  0.75395963     0.06600
H138        H  0.48969846  0.08084174  0.78652565     0.06400
C139        C  0.08783547  0.42683298  0.92440638     0.03400
C140        C  0.13388932  0.44255964  0.94108602    -0.12700
C141        C  0.15612772  0.41182838  0.94117545     0.01000
C142        C  0.13272514  0.36562077  0.92266881    -0.11200
C143        C  0.08676126  0.35016810  0.90520378     0.03400
C144        C  0.06460633  0.38080421  0.90653409    -0.10600
H145        H  0.15138647  0.47813249  0.95520847     0.09000
H146        H  0.14936156  0.34147570  0.92256961     0.06600
H147        H  0.02885773  0.36873151  0.89361861     0.06400
C148        C  0.43374857  0.35153004  0.76391380     0.03400
C149        C  0.45351065  0.32855832  0.78557771    -0.12700
C150        C  0.43078636  0.27603609  0.78761950     0.01000
C151        C  0.38549935  0.24576803  0.76955862    -0.11200
C152        C  0.36404262  0.26843895  0.74897902     0.03400
C153        C  0.38865977  0.32105826  0.74612183    -0.10600
H154        H  0.48714987  0.35162171  0.80081382     0.09000
H155        H  0.36791497  0.20516374  0.77077231     0.06600
H156        H  0.37371991  0.33834209  0.72860036     0.06400
In157      In  0.00810191  0.22188785  0.84498383     1.36900
C158        C  0.47869108  0.14869339  0.89225700     0.77900
O159        O  0.49237142  0.16136593  0.80587015    -0.60500
O160        O  0.06703201  0.22279739  0.80765915    -0.52400
C161        C  0.45708280  0.25450427  0.80726207     0.70600
O162        O  0.43498233  0.21411370  0.82469391    -0.46300
C163        C  0.06002436  0.30235520  0.88554033     0.75300
O164        O  0.44868292  0.16235707  0.88057264    -0.58200
O165        O  0.08173403  0.28454501  0.86651307    -0.48300
O166        O  0.02336041  0.17457679  0.88139546    -0.54600
C167        C  0.03700924  0.18008601  0.79480192     0.85500
O168        O  0.00446537  0.27655945  0.80846484    -0.56500
O169        O  0.01260497  0.27765885  0.88480697    -0.59800
C170        C  0.12118485  0.48907199  0.60495829     0.03400
C171        C  0.14555026  0.03430074  0.62398417    -0.12700
C172        C  0.19788467  0.06506454  0.62254252     0.01000
C173        C  0.22717092  0.04940074  0.60309830    -0.11200
C174        C  0.20346463  0.50361000  0.58423462     0.03400
C175        C  0.15067777  0.47421087  0.58509936    -0.10600
H176        H  0.12358975  0.04620666  0.63989105     0.09000
H177        H  0.26763287  0.07328281  0.60173278     0.06600
H178        H  0.13247906  0.44089071  0.56866224     0.06400
C179        C  0.40279152  0.38245331  0.59188422     0.03400
C180        C  0.37925105  0.40109113  0.56978750    -0.12700
C181        C  0.32672481  0.37865631  0.56860189     0.01000
C182        C  0.29683956  0.33404071  0.58749947    -0.11200
C183        C  0.31998425  0.31316255  0.60822188     0.03400
C184        C  0.37272583  0.33793057  0.61052356    -0.10600
H185        H  0.40191554  0.43397067  0.55372907     0.09000
H186        H  0.25620913  0.31658130  0.58683101     0.06600
H187        H  0.39037913  0.32361165  0.62823844     0.06400
In188      In  0.24776875  0.19674486  0.67869609     1.36900
C189        C  0.29087239  0.26843948  0.63050141     0.77900
O190        O  0.29342259  0.25824943  0.71614245    -0.60500
O191        O  0.30495882  0.19520002  0.71581924    -0.51500
C192        C  0.16354669  0.16741804  0.71536840     0.70600
O193        O  0.18406302  0.20843087  0.69867604    -0.46300
C194        C  0.21950155  0.11415627  0.64048889     0.75300
O195        O  0.24706610  0.25467617  0.64199793    -0.58200
O196        O  0.25858034  0.13228394  0.65932385    -0.48300
O197        O  0.30994624  0.24284292  0.64158366    -0.54600
C198        C  0.31891817  0.23907445  0.72720055     0.85500
O199        O  0.18769756  0.14384382  0.71484288    -0.56500
O200        O  0.19753980  0.13986375  0.63982806    -0.59800
C201        C  0.47825302  0.03557283  0.93121744     0.03400
C202        C  0.43253289  0.01259727  0.94953436    -0.12700
C203        C  0.40203053  0.03488821  0.95105985     0.01000
C204        C  0.41732062  0.08071426  0.93344956    -0.11200
C205        C  0.46319109  0.10382712  0.91451145     0.03400
C206        C  0.99375279  0.08139949  0.91426082    -0.10600
H207        H  0.42060375  0.47698779  0.96263070     0.09000
H208        H  0.39328121  0.09747311  0.93378145     0.06600
H209        H  0.02905252  0.09862769  0.89976037     0.06400
In210      In  0.27349205  0.45691136  0.51129952     1.36900
C211        C  0.20089482  0.42742126  0.96354969     0.77900
O212        O  0.21280813  0.44251089  0.55009471    -0.60500
O213        O  0.27453353  0.01687753  0.54774641    -0.51500
C214        C  0.30513669  0.40511801  0.54921295     0.70600
O215        O  0.26457960  0.38333699  0.53199377    -0.46300
C216        C  0.35437097  0.00842880  0.97092377     0.75300
O217        O  0.21428274  0.39741238  0.97562923    -0.58200
O218        O  0.33751227  0.03031495  0.99065833    -0.48300
O219        O  0.22682186  0.47214891  0.97423714    -0.54600
C220        C  0.23169950  0.48736762  0.56068299     0.85500
O221        O  0.32756604  0.45248296  0.54790124    -0.56500
O222        O  0.32871659  0.46105945  0.97098528    -0.59800
C223        C  0.45858975  0.41011751  0.59631455     0.00200
C224        C  0.48447726  0.38287976  0.59852762    -0.11700
C225        C  0.03672949  0.40729244  0.60312237     0.02400
C226        C  0.06496881  0.46048701  0.60329621     0.00100
C227        C  0.03888244  0.48759281  0.60138426    -0.11600
C228        C  0.48645503  0.46316399  0.59931585     0.02300
H229        H  0.46383253  0.34217480  0.59693634     0.15300
H230        H  0.05941217  0.02835538  0.60159056     0.15300
C231        C  0.46246697  0.49366140  0.60216310     0.36900
C232        C  0.05968045  0.37654281  0.60914018     0.36800
N233        N  0.44313560  0.51795891  0.60448709    -0.43400
N234        N  0.07785061  0.35171151  0.61407034    -0.43400
C235        C  0.06258457  0.45744246  0.92657583     0.00200
C236        C  0.04786945  0.47062501  0.89517088    -0.11700
C237        C  0.02078034  0.99644877  0.89611913     0.02400
C238        C  0.00890196  0.01042015  0.92895490     0.00100
C239        C  0.02379086  0.49745333  0.96034729    -0.11600
C240        C  0.04997862  0.47073592  0.95942140     0.02300
H241        H  0.05651985  0.45959642  0.86986399     0.15300
H242        H  0.01380772  0.50717885  0.98566368     0.15300
C243        C  0.06015122  0.45420508  0.99243358     0.36900
C244        C  0.00250298  0.00498596  0.86327003     0.36800
N245        N  0.06788887  0.44035188  0.51878651    -0.43400
N246        N  0.98723533  0.01149043  0.83710742    -0.43400
C247        C  0.46048853  0.40719577  0.75917216     0.00200
C248        C  0.43250893  0.43241797  0.75778884    -0.11700
C249        C  0.45606980  0.48456797  0.75287711     0.02400
C250        C  0.00923448  0.01336737  0.75172020     0.00100
C251        C  0.03699050  0.48788417  0.75298472    -0.11600
C252        C  0.51329559  0.43556222  0.75503351     0.02300
H253        H  0.39188486  0.41131615  0.76023123     0.15300
H254        H  0.07773542  0.00876738  0.75214176     0.15300
C255        C  0.04418011  0.41221628  0.75061197     0.36900
C256        C  0.42442538  0.00672107  0.74763259     0.36800
N257        N  0.06896980  0.39362934  0.74679981    -0.43400
N258        N  0.39874186  0.02409275  0.74332926    -0.43400
C259        C  0.03733917  0.56953081  0.24968877     0.03400
C260        C  0.08246792  0.59387473  0.23047770    -0.12700
C261        C  0.11389213  0.64602157  0.23253901     0.01000
C262        C  0.09851057  0.67533153  0.25216681    -0.11200
C263        C  0.05256158  0.65176821  0.27085747     0.03400
C264        C  0.02278617  0.59901804  0.26982430    -0.10600
H265        H  0.09408216  0.57197424  0.21424945     0.09000
H266        H  0.12285357  0.71568272  0.25395983     0.06600
H267        H  0.48969760  0.58084154  0.28652584     0.06400
C268        C  0.08783537  0.92683283  0.42440634     0.03400
C269        C  0.13388921  0.94255951  0.44108604    -0.12700
C270        C  0.15612772  0.91182842  0.44117537     0.01000
C271        C  0.13272508  0.86562082  0.42266877    -0.11200
C272        C  0.08676115  0.85016814  0.40520366     0.03400
C273        C  0.06460633  0.88080418  0.40653416    -0.10600
H274        H  0.15138616  0.97813226  0.45520849     0.09000
H275        H  0.14936168  0.84147598  0.42256940     0.06600
H276        H  0.02885673  0.86873151  0.39361790     0.06400
C277        C  0.43374849  0.85152978  0.26391378     0.03400
C278        C  0.45351051  0.82855819  0.28557773    -0.12700
C279        C  0.43078630  0.77603584  0.28761947     0.01000
C280        C  0.38549940  0.74576785  0.26955880    -0.11200
C281        C  0.36404264  0.76843847  0.24897907     0.03400
C282        C  0.38865956  0.82105794  0.24612193    -0.10600
H283        H  0.48714971  0.85162138  0.30081334     0.09000
H284        H  0.36791462  0.70516201  0.27077272     0.06600
H285        H  0.37371984  0.83834127  0.22860105     0.06400
In286      In  0.00810193  0.72188787  0.34498382     1.36900
C287        C  0.47869119  0.64869346  0.39225702     0.77900
O288        O  0.49237135  0.66136589  0.30587021    -0.60500
O289        O  0.06703204  0.72279737  0.30765918    -0.52400
C290        C  0.45708276  0.75450433  0.30726209     0.70600
O291        O  0.43498225  0.71411371  0.32469392    -0.46300
C292        C  0.06002456  0.80235539  0.38554015     0.75300
O293        O  0.44868296  0.66235710  0.38057275    -0.58200
O294        O  0.08173424  0.78454508  0.36651304    -0.48300
O295        O  0.02336024  0.67457677  0.38139545    -0.54600
C296        C  0.03700936  0.68008598  0.29480195     0.85500
O297        O  0.00446535  0.77655954  0.30846489    -0.56500
O298        O  0.01260520  0.77765889  0.38480693    -0.59800
C299        C  0.12118474  0.98907217  0.10495846     0.03400
C300        C  0.14555019  0.53430075  0.12398426    -0.12700
C301        C  0.19788469  0.56506453  0.12254260     0.01000
C302        C  0.22717099  0.54940081  0.10309839    -0.11200
C303        C  0.20346456  0.00360994  0.08423476     0.03400
C304        C  0.15067774  0.97421099  0.08509945    -0.10600
H305        H  0.12358995  0.54620638  0.13989128     0.09000
H306        H  0.26763285  0.57328285  0.10173279     0.06600
H307        H  0.13247880  0.94089083  0.06866203     0.06400
C308        C  0.40279141  0.88245334  0.09188413     0.03400
C309        C  0.37925107  0.90109126  0.06978752    -0.12700
C310        C  0.32672477  0.87865640  0.06860192     0.01000
C311        C  0.29683932  0.83404076  0.08749940    -0.11200
C312        C  0.31998408  0.81316270  0.10822183     0.03400
C313        C  0.37272578  0.83793054  0.11052351    -0.10600
H314        H  0.40191523  0.93397042  0.05372957     0.09000
H315        H  0.25620924  0.81658185  0.08683102     0.06600
H316        H  0.39037833  0.82361201  0.12823749     0.06400
In317      In  0.24776879  0.69674488  0.17869604     1.36900
C318        C  0.29087247  0.76843952  0.13050130     0.77900
O319        O  0.29342262  0.75824939  0.21614236    -0.60500
O320        O  0.30495898  0.69520011  0.21581925    -0.51500
C321        C  0.16354666  0.66741810  0.21536832     0.70600
O322        O  0.18406325  0.70843099  0.19867603    -0.46300
C323        C  0.21950158  0.61415633  0.14048885     0.75300
O324        O  0.24706635  0.75467635  0.14199793    -0.58200
O325        O  0.25858028  0.63228381  0.15932392    -0.48300
O326        O  0.30994621  0.74284291  0.14158358    -0.54600
C327        C  0.31891811  0.73907440  0.22720064     0.85500
O328        O  0.18769743  0.64384384  0.21484281    -0.56500
O329        O  0.19753987  0.63986387  0.13982793    -0.59800
C330        C  0.47825292  0.53557263  0.43121756     0.03400
C331        C  0.43253287  0.51259714  0.44953445    -0.12700
C332        C  0.40203065  0.53488815  0.45105993     0.01000
C333        C  0.41732076  0.58071435  0.43344967    -0.11200
C334        C  0.46319118  0.60382718  0.41451157     0.03400
C335        C  0.99375249  0.58139941  0.41426093    -0.10600
H336        H  0.42060371  0.97698674  0.46263143     0.09000
H337        H  0.39328125  0.59747324  0.43378158     0.06600
H338        H  0.02905133  0.59862739  0.39976070     0.06400
In339      In  0.27349199  0.95691144  0.01129958     1.36900
C340        C  0.20089478  0.92742125  0.46354975     0.77900
O341        O  0.21280801  0.94251085  0.05009485    -0.60500
O342        O  0.27453358  0.51687764  0.04774669    -0.51500
C343        C  0.30513680  0.90511811  0.04921290     0.70600
O344        O  0.26457969  0.88333707  0.03199378    -0.46300
C345        C  0.35437115  0.50842881  0.47092376     0.75300
O346        O  0.21428286  0.89741240  0.47562916    -0.58200
O347        O  0.33751242  0.53031484  0.49065832    -0.48300
O348        O  0.22682197  0.97214896  0.47423708    -0.54600
C349        C  0.23169952  0.98736765  0.06068309     0.85500
O350        O  0.32756591  0.95248303  0.04790133    -0.56500
O351        O  0.32871651  0.96105943  0.47098519    -0.59800
C352        C  0.45858967  0.91011764  0.09631466     0.00200
C353        C  0.48447712  0.88287988  0.09852756    -0.11700
C354        C  0.03672951  0.90729251  0.10312242     0.02400
C355        C  0.06496881  0.96048712  0.10329616     0.00100
C356        C  0.03888250  0.98759293  0.10138427    -0.11600
C357        C  0.48645510  0.96316417  0.09931570     0.02300
H358        H  0.46383223  0.84217493  0.09693639     0.15300
H359        H  0.05941209  0.52835493  0.10159039     0.15300
C360        C  0.46246701  0.99366149  0.10216305     0.36900
C361        C  0.05968044  0.87654282  0.10914007     0.36800
N362        N  0.44313548  0.01795885  0.10448691    -0.43400
N363        N  0.07785071  0.85171161  0.11407016    -0.43400
C364        C  0.06258469  0.95744243  0.42657584     0.00200
C365        C  0.04786949  0.97062503  0.39517086    -0.11700
C366        C  0.02078034  0.49644874  0.39611902     0.02400
C367        C  0.00890205  0.51042013  0.42895471     0.00100
C368        C  0.02379093  0.99745335  0.46034720    -0.11600
C369        C  0.04997871  0.97073586  0.45942128     0.02300
H370        H  0.05651986  0.95959669  0.36986422     0.15300
H371        H  0.01380787  0.00717825  0.48566269     0.15300
C372        C  0.06015116  0.95420516  0.49243356     0.36900
C373        C  0.00250283  0.50498595  0.36326994     0.36800
N374        N  0.06788895  0.94035194  0.01878656    -0.43400
N375        N  0.98723530  0.51149050  0.33710738    -0.43400
C376        C  0.46048849  0.90719577  0.25917230     0.00200
C377        C  0.43250908  0.93241810  0.25778886    -0.11700
C378        C  0.45606995  0.98456812  0.25287726     0.02400
C379        C  0.00923445  0.51336734  0.25172032     0.00100
C380        C  0.03699053  0.98788428  0.25298482    -0.11600
C381        C  0.51329568  0.93556230  0.25503353     0.02300
H382        H  0.39188467  0.91131616  0.26023125     0.15300
H383        H  0.07773543  0.50876729  0.25214215     0.15300
C384        C  0.04418023  0.91221636  0.25061206     0.36900
C385        C  0.42442531  0.50672103  0.24763260     0.36800
N386        N  0.06896994  0.89362942  0.24679993    -0.43400
N387        N  0.39874194  0.52409285  0.24332916    -0.43400
C388        C  0.03733913  0.56953063  0.74968862     0.03400
C389        C  0.08246794  0.59387460  0.73047764    -0.12700
C390        C  0.11389205  0.64602147  0.73253888     0.01000
C391        C  0.09851051  0.67533143  0.75216673    -0.11200
C392        C  0.05256161  0.65176824  0.77085741     0.03400
C393        C  0.02278616  0.59901804  0.76982416    -0.10600
H394        H  0.09408232  0.57197393  0.71424897     0.09000
H395        H  0.12285356  0.71568296  0.75395953     0.06600
H396        H  0.48969808  0.58084194  0.78652525     0.06400
C397        C  0.08783510  0.92683285  0.92440626     0.03400
C398        C  0.13388900  0.94255950  0.94108587    -0.12700
C399        C  0.15612745  0.91182843  0.94117541     0.01000
C400        C  0.13272496  0.86562084  0.92266879    -0.11200
C401        C  0.08676097  0.85016821  0.90520368     0.03400
C402        C  0.06460617  0.88080422  0.90653406    -0.10600
H403        H  0.15138613  0.97813251  0.95520824     0.09000
H404        H  0.14936070  0.84147629  0.92256988     0.06600
H405        H  0.02885624  0.86873124  0.89361774     0.06400
C406        C  0.43374855  0.85152993  0.76391382     0.03400
C407        C  0.45351065  0.82855838  0.78557774    -0.12700
C408        C  0.43078654  0.77603614  0.78761948     0.01000
C409        C  0.38549953  0.74576808  0.76955875    -0.11200
C410        C  0.36404274  0.76843880  0.74897905     0.03400
C411        C  0.38865964  0.82105815  0.74612186    -0.10600
H412        H  0.48715004  0.85162202  0.80081381     0.09000
H413        H  0.36791540  0.70516350  0.77077234     0.06600
H414        H  0.37372004  0.83834144  0.72860072     0.06400
In415      In  0.00810193  0.72188795  0.84498384     1.36900
C416        C  0.47869119  0.64869338  0.89225695     0.77900
O417        O  0.49237143  0.66136599  0.80587034    -0.60500
O418        O  0.06703191  0.72279737  0.80765914    -0.52400
C419        C  0.45708281  0.75450431  0.80726202     0.70600
O420        O  0.43498224  0.71411375  0.82469398    -0.46300
C421        C  0.06002450  0.80235523  0.88554037     0.75300
O422        O  0.44868299  0.66235711  0.88057277    -0.58200
O423        O  0.08173424  0.78454511  0.86651310    -0.48300
O424        O  0.02336027  0.67457672  0.88139546    -0.54600
C425        C  0.03700926  0.68008605  0.79480189     0.85500
O426        O  0.00446545  0.77655961  0.80846482    -0.56500
O427        O  0.01260510  0.77765885  0.88480698    -0.59800
C428        C  0.12118483  0.98907203  0.60495828     0.03400
C429        C  0.14555023  0.53430074  0.62398404    -0.12700
C430        C  0.19788486  0.56506458  0.62254246     0.01000
C431        C  0.22717128  0.54940102  0.60309831    -0.11200
C432        C  0.20346442  0.00360971  0.58423452     0.03400
C433        C  0.15067767  0.97421079  0.58509928    -0.10600
H434        H  0.12359030  0.54620626  0.63989056     0.09000
H435        H  0.26763323  0.57328310  0.60173280     0.06600
H436        H  0.13247829  0.94088966  0.56866169     0.06400
C437        C  0.40279145  0.88245337  0.59188424     0.03400
C438        C  0.37925112  0.90109115  0.56978749    -0.12700
C439        C  0.32672470  0.87865622  0.56860194     0.01000
C440        C  0.29683937  0.83404069  0.58749940    -0.11200
C441        C  0.31998407  0.81316263  0.60822182     0.03400
C442        C  0.37272581  0.83793055  0.61052352    -0.10600
H443        H  0.40191512  0.93396959  0.55372933     0.09000
H444        H  0.25620874  0.81658120  0.58683075     0.06600
H445        H  0.39037837  0.82361254  0.62823810     0.06400
In446      In  0.24776875  0.69674479  0.67869611     1.36900
C447        C  0.29087249  0.76843955  0.63050142     0.77900
O448        O  0.29342259  0.75824941  0.71614239    -0.60500
O449        O  0.30495883  0.69519989  0.71581934    -0.51500
C450        C  0.16354669  0.66741810  0.71536844     0.70600
O451        O  0.18406310  0.70843086  0.69867596    -0.46300
C452        C  0.21950157  0.61415627  0.64048884     0.75300
O453        O  0.24706620  0.75467608  0.64199785    -0.58200
O454        O  0.25858043  0.63228382  0.65932377    -0.48300
O455        O  0.30994623  0.74284295  0.64158375    -0.54600
C456        C  0.31891812  0.73907437  0.72720060     0.85500
O457        O  0.18769748  0.64384383  0.71484306    -0.56500
O458        O  0.19753977  0.63986376  0.63982806    -0.59800
C459        C  0.47825286  0.53557268  0.93121743     0.03400
C460        C  0.43253279  0.51259723  0.94953434    -0.12700
C461        C  0.40203054  0.53488828  0.95105983     0.01000
C462        C  0.41732073  0.58071436  0.93344952    -0.11200
C463        C  0.46319115  0.60382718  0.91451147     0.03400
C464        C  0.99375246  0.58139939  0.91426082    -0.10600
H465        H  0.42060432  0.97698835  0.96263081     0.09000
H466        H  0.39328123  0.59747385  0.93378165     0.06600
H467        H  0.02905143  0.59862737  0.89976050     0.06400
In468      In  0.27349208  0.95691133  0.51129949     1.36900
C469        C  0.20089475  0.92742130  0.96354962     0.77900
O470        O  0.21280819  0.94251088  0.55009473    -0.60500
O471        O  0.27453352  0.51687758  0.54774657    -0.51500
C472        C  0.30513673  0.90511797  0.54921299     0.70600
O473        O  0.26457971  0.88333707  0.53199376    -0.46300
C474        C  0.35437108  0.50842878  0.97092377     0.75300
O475        O  0.21428279  0.89741260  0.97562923    -0.58200
O476        O  0.33751230  0.53031489  0.99065829    -0.48300
O477        O  0.22682175  0.97214886  0.97423717    -0.54600
C478        C  0.23169955  0.98736760  0.56068293     0.85500
O479        O  0.32756608  0.95248284  0.54790124    -0.56500
O480        O  0.32871649  0.96105949  0.97098533    -0.59800
C481        C  0.45858984  0.91011782  0.59631454     0.00200
C482        C  0.48447730  0.88288001  0.59852764    -0.11700
C483        C  0.03672968  0.90729277  0.60312241     0.02400
C484        C  0.06496898  0.96048737  0.60329622     0.00100
C485        C  0.03888255  0.98759302  0.60138424    -0.11600
C486        C  0.48645519  0.96316429  0.59931585     0.02300
H487        H  0.46383322  0.84217647  0.59693640     0.15300
H488        H  0.05941124  0.52835371  0.60159054     0.15300
C489        C  0.46246697  0.99366147  0.60216311     0.36900
C490        C  0.05968030  0.87654269  0.60914018     0.36800
N491        N  0.44313532  0.01795870  0.60448710    -0.43400
N492        N  0.07785063  0.85171156  0.61407032    -0.43400
C493        C  0.06258451  0.95744248  0.92657589     0.00200
C494        C  0.04786944  0.97062511  0.89517095    -0.11700
C495        C  0.02078038  0.49644873  0.89611908     0.02400
C496        C  0.00890196  0.51042007  0.92895488     0.00100
C497        C  0.02379088  0.99745341  0.96034730    -0.11600
C498        C  0.04997855  0.97073591  0.95942145     0.02300
H499        H  0.05652029  0.95959718  0.86986419     0.15300
H500        H  0.01380786  0.00717923  0.98566385     0.15300
C501        C  0.06015121  0.95420510  0.99243361     0.36900
C502        C  0.00250272  0.50498575  0.86327004     0.36800
N503        N  0.06788889  0.94035178  0.51878644    -0.43400
N504        N  0.98723528  0.51149046  0.83710744    -0.43400
C505        C  0.46048858  0.90719575  0.75917217     0.00200
C506        C  0.43250916  0.93241810  0.75778882    -0.11700
C507        C  0.45607010  0.98456818  0.75287712     0.02400
C508        C  0.00923423  0.51336713  0.75172019     0.00100
C509        C  0.03699055  0.98788429  0.75298476    -0.11600
C510        C  0.51329578  0.93556233  0.75503353     0.02300
H511        H  0.39188540  0.91131658  0.76023115     0.15300
H512        H  0.07773475  0.50876682  0.75214161     0.15300
C513        C  0.04418036  0.91221654  0.75061199     0.36900
C514        C  0.42442521  0.50672106  0.74763261     0.36800
N515        N  0.06896996  0.89362949  0.74679982    -0.43400
N516        N  0.39874186  0.52409285  0.74332927    -0.43400
C517        C  0.53733926  0.06953080  0.24968876     0.03400
C518        C  0.58246794  0.09387467  0.23047772    -0.12700
C519        C  0.61389218  0.14602159  0.23253904     0.01000
C520        C  0.59851061  0.17533160  0.25216678    -0.11200
C521        C  0.55256176  0.15176834  0.27085743     0.03400
C522        C  0.52278626  0.09901813  0.26982425    -0.10600
H523        H  0.59408226  0.07197423  0.21424953     0.09000
H524        H  0.62285378  0.21568309  0.25395987     0.06600
H525        H  0.98969826  0.08084211  0.28652557     0.06400
C526        C  0.58783519  0.42683276  0.42440622     0.03400
C527        C  0.63388908  0.44255944  0.44108589    -0.12700
C528        C  0.65612762  0.41182832  0.44117533     0.01000
C529        C  0.63272513  0.36562073  0.42266884    -0.11200
C530        C  0.58676117  0.35016813  0.40520361     0.03400
C531        C  0.56460617  0.38080408  0.40653411    -0.10600
H532        H  0.65138617  0.47813210  0.45520768     0.09000
H533        H  0.64936158  0.34147599  0.42256981     0.06600
H534        H  0.52885659  0.36873130  0.39361778     0.06400
C535        C  0.93374846  0.35152971  0.26391378     0.03400
C536        C  0.95351054  0.32855815  0.28557774    -0.12700
C537        C  0.93078624  0.27603569  0.28761944     0.01000
C538        C  0.88549939  0.24576771  0.26955881    -0.11200
C539        C  0.86404270  0.26843845  0.24897912     0.03400
C540        C  0.88865958  0.32105799  0.24612194    -0.10600
H541        H  0.98714908  0.35162088  0.30081304     0.09000
H542        H  0.86791464  0.20516198  0.27077272     0.06600
H543        H  0.87372003  0.33834108  0.22860128     0.06400
In544      In  0.50810195  0.22188794  0.34498383     1.36900
C545        C  0.97869125  0.14869350  0.39225702     0.77900
O546        O  0.99237143  0.16136594  0.30587030    -0.60500
O547        O  0.56703192  0.22279732  0.30765913    -0.52400
C548        C  0.95708277  0.25450426  0.30726206     0.70600
O549        O  0.93498223  0.21411368  0.32469401    -0.46300
C550        C  0.56002453  0.30235533  0.38554017     0.75300
O551        O  0.94868301  0.16235715  0.38057278    -0.58200
O552        O  0.58173432  0.28454511  0.36651310    -0.48300
O553        O  0.52336029  0.17457682  0.38139548    -0.54600
C554        C  0.53700931  0.18008595  0.29480194     0.85500
O555        O  0.50446535  0.27655960  0.30846478    -0.56500
O556        O  0.51260511  0.27765884  0.38480683    -0.59800
C557        C  0.62118476  0.48907210  0.10495840     0.03400
C558        C  0.64555021  0.03430087  0.12398422    -0.12700
C559        C  0.69788481  0.06506466  0.12254264     0.01000
C560        C  0.72717123  0.04940105  0.10309846    -0.11200
C561        C  0.70346441  0.50360974  0.08423468     0.03400
C562        C  0.65067770  0.47421091  0.08509942    -0.10600
H563        H  0.62359001  0.04620647  0.13989111     0.09000
H564        H  0.76763304  0.07328305  0.10173300     0.06600
H565        H  0.63247834  0.44088980  0.06866182     0.06400
C566        C  0.90279150  0.38245342  0.09188416     0.03400
C567        C  0.87925115  0.40109136  0.06978747    -0.12700
C568        C  0.82672482  0.37865633  0.06860193     0.01000
C569        C  0.79683931  0.33404075  0.08749946    -0.11200
C570        C  0.81998417  0.31316278  0.10822186     0.03400
C571        C  0.87272587  0.33793058  0.11052350    -0.10600
H572        H  0.90191471  0.43396950  0.05372966     0.09000
H573        H  0.75621028  0.31658222  0.08683112     0.06600
H574        H  0.89037821  0.32361243  0.12823745     0.06400
In575      In  0.74776884  0.19674498  0.17869603     1.36900
C576        C  0.79087243  0.26843961  0.13050133     0.77900
O577        O  0.79342269  0.25824943  0.21614237    -0.60500
O578        O  0.80495900  0.19520012  0.21581921    -0.51500
C579        C  0.66354670  0.16741812  0.21536834     0.70600
O580        O  0.68406325  0.20843105  0.19867600    -0.46300
C581        C  0.71950168  0.11415643  0.14048885     0.75300
O582        O  0.74706626  0.25467650  0.14199796    -0.58200
O583        O  0.75858039  0.13228393  0.15932390    -0.48300
O584        O  0.80994628  0.24284302  0.14158356    -0.54600
C585        C  0.81891816  0.23907441  0.22720066     0.85500
O586        O  0.68769750  0.14384387  0.21484289    -0.56500
O587        O  0.69753997  0.13986397  0.13982792    -0.59800
C588        C  0.97825305  0.03557266  0.43121746     0.03400
C589        C  0.93253294  0.01259721  0.44953435    -0.12700
C590        C  0.90203075  0.03488817  0.45105994     0.01000
C591        C  0.91732089  0.08071432  0.43344963    -0.11200
C592        C  0.96319146  0.10382729  0.41451154     0.03400
C593        C  0.49375249  0.08139941  0.41426092    -0.10600
H594        H  0.92060395  0.47698718  0.46263150     0.09000
H595        H  0.89328128  0.09747324  0.43378170     0.06600
H596        H  0.52905196  0.09862781  0.39976067     0.06400
In597      In  0.77349193  0.45691134  0.01129957     1.36900
C598        C  0.70089470  0.42742122  0.46354971     0.77900
O599        O  0.71280794  0.44251078  0.05009490    -0.60500
O600        O  0.77453357  0.01687766  0.04774669    -0.51500
C601        C  0.80513674  0.40511799  0.04921294     0.70600
O602        O  0.76457966  0.38333703  0.03199388    -0.46300
C603        C  0.85437114  0.00842879  0.47092376     0.75300
O604        O  0.71428284  0.39741252  0.47562920    -0.58200
O605        O  0.83751246  0.03031492  0.49065834    -0.48300
O606        O  0.72682176  0.47214883  0.47423713    -0.54600
C607        C  0.73169950  0.48736762  0.06068306     0.85500
O608        O  0.82756579  0.45248284  0.04790124    -0.56500
O609        O  0.82871642  0.46105949  0.47098519    -0.59800
C610        C  0.95858983  0.41011772  0.09631465     0.00200
C611        C  0.98447724  0.38287987  0.09852758    -0.11700
C612        C  0.53672950  0.40729261  0.10312240     0.02400
C613        C  0.56496888  0.46048728  0.10329613     0.00100
C614        C  0.53888252  0.48759302  0.10138425    -0.11600
C615        C  0.98645518  0.46316428  0.09931569     0.02300
H616        H  0.96383268  0.34217527  0.09693639     0.15300
H617        H  0.55941172  0.02835420  0.10159044     0.15300
C618        C  0.96246690  0.49366140  0.10216303     0.36900
C619        C  0.55968026  0.37654281  0.10914010     0.36800
N620        N  0.94313541  0.51795881  0.10448691    -0.43400
N621        N  0.57785062  0.35171164  0.11407018    -0.43400
C622        C  0.56258460  0.45744247  0.42657583     0.00200
C623        C  0.54786948  0.47062502  0.39517085    -0.11700
C624        C  0.52078034  0.99644870  0.39611897     0.02400
C625        C  0.50890207  0.01042011  0.42895466     0.00100
C626        C  0.52379089  0.49745340  0.46034720    -0.11600
C627        C  0.54997862  0.47073587  0.45942130     0.02300
H628        H  0.55652059  0.45959717  0.36986416     0.15300
H629        H  0.51380818  0.50717878  0.48566276     0.15300
C630        C  0.56015120  0.45420508  0.49243354     0.36900
C631        C  0.50250282  0.00498594  0.36326992     0.36800
N632        N  0.56788881  0.44035168  0.01878651    -0.43400
N633        N  0.48723543  0.01149068  0.33710736    -0.43400
C634        C  0.96048848  0.40719569  0.25917230     0.00200
C635        C  0.93250900  0.43241803  0.25778886    -0.11700
C636        C  0.95606996  0.48456812  0.25287725     0.02400
C637        C  0.50923449  0.01336734  0.25172033     0.00100
C638        C  0.53699059  0.48788427  0.25298484    -0.11600
C639        C  0.01329562  0.43556225  0.25503354     0.02300
H640        H  0.89188518  0.41131651  0.26023121     0.15300
H641        H  0.57773589  0.00876746  0.25214205     0.15300
C642        C  0.54418033  0.41221652  0.25061207     0.36900
C643        C  0.92442519  0.00672098  0.24763262     0.36800
N644        N  0.56896993  0.39362947  0.24679994    -0.43400
N645        N  0.89874195  0.02409289  0.24332918    -0.43400
C646        C  0.53733926  0.06953076  0.74968862     0.03400
C647        C  0.58246800  0.09387470  0.73047760    -0.12700
C648        C  0.61389210  0.14602144  0.73253884     0.01000
C649        C  0.59851058  0.17533143  0.75216670    -0.11200
C650        C  0.55256158  0.15176814  0.77085737     0.03400
C651        C  0.52278612  0.09901797  0.76982415    -0.10600
H652        H  0.59408234  0.07197393  0.71424885     0.09000
H653        H  0.62285347  0.21568262  0.75395949     0.06600
H654        H  0.98969757  0.08084147  0.78652573     0.06400
C655        C  0.58783520  0.42683284  0.92440627     0.03400
C656        C  0.63388911  0.44255956  0.94108593    -0.12700
C657        C  0.65612751  0.41182830  0.94117543     0.01000
C658        C  0.63272505  0.36562074  0.92266876    -0.11200
C659        C  0.58676110  0.35016812  0.90520363     0.03400
C660        C  0.56460629  0.38080423  0.90653402    -0.10600
H661        H  0.65138604  0.47813226  0.95520832     0.09000
H662        H  0.64936133  0.34147571  0.92256974     0.06600
H663        H  0.52885637  0.36873128  0.89361769     0.06400
C664        C  0.93374861  0.35153001  0.76391382     0.03400
C665        C  0.95351064  0.32855831  0.78557773    -0.12700
C666        C  0.93078652  0.27603612  0.78761947     0.01000
C667        C  0.88549947  0.24576802  0.76955872    -0.11200
C668        C  0.86404275  0.26843889  0.74897901     0.03400
C669        C  0.88865975  0.32105823  0.74612185    -0.10600
H670        H  0.98715018  0.35162191  0.80081391     0.09000
H671        H  0.86791538  0.20516362  0.77077228     0.06600
H672        H  0.87372008  0.33834188  0.72860046     0.06400
In673      In  0.50810194  0.22188785  0.84498384     1.36900
C674        C  0.97869122  0.14869342  0.89225698     0.77900
O675        O  0.99237135  0.16136588  0.80587023    -0.60500
O676        O  0.56703196  0.22279729  0.80765916    -0.52400
C677        C  0.95708282  0.25450428  0.80726204     0.70600
O678        O  0.93498228  0.21411369  0.82469387    -0.46300
C679        C  0.56002450  0.30235521  0.88554030     0.75300
O680        O  0.94868297  0.16235701  0.88057267    -0.58200
O681        O  0.58173421  0.28454505  0.86651306    -0.48300
O682        O  0.52336030  0.17457671  0.88139552    -0.54600
C683        C  0.53700927  0.18008596  0.79480187     0.85500
O684        O  0.50446537  0.27655944  0.80846489    -0.56500
O685        O  0.51260512  0.27765883  0.88480694    -0.59800
C686        C  0.62118479  0.48907208  0.60495834     0.03400
C687        C  0.64555030  0.03430073  0.62398412    -0.12700
C688        C  0.69788482  0.06506455  0.62254247     0.01000
C689        C  0.72717108  0.04940086  0.60309828    -0.11200
C690        C  0.70346463  0.50360999  0.58423460     0.03400
C691        C  0.65067777  0.47421094  0.58509936    -0.10600
H692        H  0.62359037  0.04620616  0.63989073     0.09000
H693        H  0.76763299  0.07328294  0.60173269     0.06600
H694        H  0.63247889  0.44089082  0.56866210     0.06400
C695        C  0.90279150  0.38245334  0.59188418     0.03400
C696        C  0.87925114  0.40109117  0.56978750    -0.12700
C697        C  0.82672480  0.37865634  0.56860189     0.01000
C698        C  0.79683936  0.33404067  0.58749940    -0.11200
C699        C  0.81998405  0.31316259  0.60822182     0.03400
C700        C  0.87272576  0.33793055  0.61052353    -0.10600
H701        H  0.90191565  0.43397065  0.55372916     0.09000
H702        H  0.75620875  0.31658119  0.58683087     0.06600
H703        H  0.89037856  0.32361201  0.62823813     0.06400
In704      In  0.74776881  0.19674485  0.67869609     1.36900
C705        C  0.79087238  0.26843950  0.63050140     0.77900
O706        O  0.79342265  0.25824952  0.71614237    -0.60500
O707        O  0.80495890  0.19519999  0.71581930    -0.51500
C708        C  0.66354670  0.16741807  0.71536842     0.70600
O709        O  0.68406312  0.20843082  0.69867602    -0.46300
C710        C  0.71950158  0.11415628  0.64048888     0.75300
O711        O  0.74706611  0.25467617  0.64199795    -0.58200
O712        O  0.75858039  0.13228384  0.65932387    -0.48300
O713        O  0.80994626  0.24284294  0.64158363    -0.54600
C714        C  0.81891817  0.23907445  0.72720058     0.85500
O715        O  0.68769754  0.14384389  0.71484294    -0.56500
O716        O  0.69753979  0.13986375  0.63982803    -0.59800
C717        C  0.97825312  0.03557289  0.93121736     0.03400
C718        C  0.93253296  0.01259734  0.94953432    -0.12700
C719        C  0.90203065  0.03488829  0.95105976     0.01000
C720        C  0.91732080  0.08071437  0.93344952    -0.11200
C721        C  0.96319137  0.10382721  0.91451140     0.03400
C722        C  0.49375259  0.08139948  0.91426084    -0.10600
H723        H  0.92060387  0.47698764  0.96263089     0.09000
H724        H  0.89328133  0.09747328  0.93378143     0.06600
H725        H  0.52905155  0.09862741  0.89976054     0.06400
In726      In  0.77349200  0.45691137  0.51129953     1.36900
C727        C  0.70089482  0.42742131  0.96354962     0.77900
O728        O  0.71280805  0.44251087  0.55009473    -0.60500
O729        O  0.77453349  0.01687751  0.54774652    -0.51500
C730        C  0.80513678  0.40511804  0.54921289     0.70600
O731        O  0.76457963  0.38333704  0.53199380    -0.46300
C732        C  0.85437116  0.00842882  0.97092377     0.75300
O733        O  0.71428273  0.39741244  0.97562917    -0.58200
O734        O  0.83751239  0.03031493  0.99065828    -0.48300
O735        O  0.72682179  0.47214891  0.97423722    -0.54600
C736        C  0.73169956  0.48736761  0.56068303     0.85500
O737        O  0.82756602  0.45248296  0.54790123    -0.56500
O738        O  0.82871647  0.46105939  0.97098525    -0.59800
C739        C  0.95858970  0.41011753  0.59631455     0.00200
C740        C  0.98447713  0.38287978  0.59852761    -0.11700
C741        C  0.53672952  0.40729244  0.60312239     0.02400
C742        C  0.56496878  0.46048701  0.60329624     0.00100
C743        C  0.53888245  0.48759283  0.60138427    -0.11600
C744        C  0.98645502  0.46316398  0.59931584     0.02300
H745        H  0.96383224  0.34217485  0.59693633     0.15300
H746        H  0.55941227  0.02835541  0.60159054     0.15300
C747        C  0.96246708  0.49366144  0.60216310     0.36900
C748        C  0.55968045  0.37654279  0.60914018     0.36800
N749        N  0.94313566  0.51795891  0.60448709    -0.43400
N750        N  0.57785071  0.35171159  0.61407032    -0.43400
C751        C  0.56258457  0.45744242  0.92657582     0.00200
C752        C  0.54786947  0.47062502  0.89517092    -0.11700
C753        C  0.52078035  0.99644875  0.89611909     0.02400
C754        C  0.50890206  0.01042018  0.92895485     0.00100
C755        C  0.52379084  0.49745327  0.96034728    -0.11600
C756        C  0.54997855  0.47073579  0.95942139     0.02300
H757        H  0.55652030  0.45959657  0.86986378     0.15300
H758        H  0.51380764  0.50717872  0.98566371     0.15300
C759        C  0.56015122  0.45420504  0.99243359     0.36900
C760        C  0.50250280  0.00498596  0.86327005     0.36800
N761        N  0.56788894  0.44035190  0.51878650    -0.43400
N762        N  0.48723527  0.01149045  0.83710741    -0.43400
C763        C  0.96048848  0.40719577  0.75917220     0.00200
C764        C  0.93250893  0.43241798  0.75778884    -0.11700
C765        C  0.95606975  0.48456795  0.75287712     0.02400
C766        C  0.50923464  0.01336742  0.75172021     0.00100
C767        C  0.53699048  0.48788418  0.75298473    -0.11600
C768        C  0.01329556  0.43556221  0.75503351     0.02300
H769        H  0.89188454  0.41131598  0.76023122     0.15300
H770        H  0.57773652  0.00876782  0.75214167     0.15300
C771        C  0.54418017  0.41221630  0.75061199     0.36900
C772        C  0.92442517  0.00672096  0.74763260     0.36800
N773        N  0.56896988  0.39362939  0.74679983    -0.43400
N774        N  0.89874177  0.02409273  0.74332926    -0.43400
C775        C  0.53733914  0.56953078  0.24968882     0.03400
C776        C  0.58246786  0.59387475  0.23047773    -0.12700
C777        C  0.61389218  0.64602152  0.23253908     0.01000
C778        C  0.59851064  0.67533151  0.25216677    -0.11200
C779        C  0.55256160  0.65176821  0.27085751     0.03400
C780        C  0.52278617  0.59901807  0.26982427    -0.10600
H781        H  0.59408218  0.57197408  0.21424949     0.09000
H782        H  0.62285410  0.71568285  0.25395996     0.06600
H783        H  0.98969836  0.58084174  0.28652581     0.06400
C784        C  0.58783530  0.92683286  0.42440630     0.03400
C785        C  0.63388919  0.94255948  0.44108604    -0.12700
C786        C  0.65612772  0.91182837  0.44117543     0.01000
C787        C  0.63272515  0.86562077  0.42266883    -0.11200
C788        C  0.58676117  0.85016816  0.40520365     0.03400
C789        C  0.56460624  0.88080421  0.40653409    -0.10600
H790        H  0.65138618  0.97813216  0.45520854     0.09000
H791        H  0.64936179  0.84147591  0.42256950     0.06600
H792        H  0.52885679  0.86873159  0.39361782     0.06400
C793        C  0.93374842  0.85152981  0.26391371     0.03400
C794        C  0.95351055  0.82855824  0.28557771    -0.12700
C795        C  0.93078621  0.77603586  0.28761949     0.01000
C796        C  0.88549937  0.74576791  0.26955867    -0.11200
C797        C  0.86404255  0.76843854  0.24897897     0.03400
C798        C  0.88865957  0.82105794  0.24612185    -0.10600
H799        H  0.98714950  0.85162126  0.30081333     0.09000
H800        H  0.86791460  0.70516205  0.27077249     0.06600
H801        H  0.87371923  0.83834168  0.22860081     0.06400
In802      In  0.50810192  0.72188790  0.34498383     1.36900
C803        C  0.97869107  0.64869345  0.39225703     0.77900
O804        O  0.99237147  0.66136595  0.30587011    -0.60500
O805        O  0.56703204  0.72279743  0.30765914    -0.52400
C806        C  0.95708280  0.75450434  0.30726213     0.70600
O807        O  0.93498234  0.71411373  0.32469396    -0.46300
C808        C  0.56002447  0.80235537  0.38554015     0.75300
O809        O  0.94868291  0.66235716  0.38057271    -0.58200
O810        O  0.58173423  0.78454512  0.36651301    -0.48300
O811        O  0.52336035  0.67457683  0.38139540    -0.54600
C812        C  0.53700928  0.68008602  0.29480195     0.85500
O813        O  0.50446529  0.77655954  0.30846484    -0.56500
O814        O  0.51260502  0.77765884  0.38480701    -0.59800
C815        C  0.62118484  0.98907209  0.10495840     0.03400
C816        C  0.64555017  0.53430081  0.12398428    -0.12700
C817        C  0.69788456  0.56506455  0.12254266     0.01000
C818        C  0.72717083  0.54940074  0.10309842    -0.11200
C819        C  0.70346461  0.00360999  0.08423474     0.03400
C820        C  0.65067779  0.97421095  0.08509942    -0.10600
H821        H  0.62358941  0.54620682  0.13989146     0.09000
H822        H  0.76763282  0.57328283  0.10173286     0.06600
H823        H  0.63247903  0.94089074  0.06866216     0.06400
C824        C  0.90279143  0.88245328  0.09188419     0.03400
C825        C  0.87925099  0.90109122  0.06978753    -0.12700
C826        C  0.82672479  0.87865638  0.06860191     0.01000
C827        C  0.79683949  0.83404082  0.08749946    -0.11200
C828        C  0.81998421  0.81316267  0.10822189     0.03400
C829        C  0.87272580  0.83793053  0.11052354    -0.10600
H830        H  0.90191514  0.93397045  0.05372949     0.09000
H831        H  0.75620962  0.81658201  0.08683113     0.06600
H832        H  0.89037883  0.82361159  0.12823780     0.06400
In833      In  0.74776877  0.69674491  0.17869603     1.36900
C834        C  0.79087238  0.76843951  0.13050131     0.77900
O835        O  0.79342257  0.75824933  0.21614239    -0.60500
O836        O  0.80495894  0.69520016  0.21581913    -0.51500
C837        C  0.66354662  0.66741805  0.21536836     0.70600
O838        O  0.68406317  0.70843097  0.19867608    -0.46300
C839        C  0.71950152  0.61415632  0.14048887     0.75300
O840        O  0.74706620  0.75467640  0.14199792    -0.58200
O841        O  0.75858022  0.63228390  0.15932387    -0.48300
O842        O  0.80994620  0.74284291  0.14158357    -0.54600
C843        C  0.81891806  0.73907437  0.22720062     0.85500
O844        O  0.68769739  0.64384381  0.21484285    -0.56500
O845        O  0.69753988  0.63986387  0.13982798    -0.59800
C846        C  0.97825295  0.53557264  0.43121758     0.03400
C847        C  0.93253288  0.51259710  0.44953445    -0.12700
C848        C  0.90203058  0.53488804  0.45105997     0.01000
C849        C  0.91732065  0.58071422  0.43344968    -0.11200
C850        C  0.96319105  0.60382712  0.41451157     0.03400
C851        C  0.49375257  0.58139942  0.41426096    -0.10600
H852        H  0.92060367  0.97698692  0.46263121     0.09000
H853        H  0.89328115  0.59747302  0.43378161     0.06600
H854        H  0.52905141  0.59862735  0.39976078     0.06400
In855      In  0.77349208  0.95691144  0.01129956     1.36900
C856        C  0.70089477  0.92742127  0.46354975     0.77900
O857        O  0.71280812  0.94251093  0.05009476    -0.60500
O858        O  0.77453356  0.51687771  0.04774658    -0.51500
C859        C  0.80513670  0.90511807  0.04921296     0.70600
O860        O  0.76457965  0.88333702  0.03199377    -0.46300
C861        C  0.85437102  0.50842877  0.47092378     0.75300
O862        O  0.71428282  0.89741240  0.47562910    -0.58200
O863        O  0.83751236  0.53031483  0.49065844    -0.48300
O864        O  0.72682186  0.97214894  0.47423717    -0.54600
C865        C  0.73169952  0.98736766  0.06068308     0.85500
O866        O  0.82756593  0.95248301  0.04790134    -0.56500
O867        O  0.82871650  0.96105944  0.47098519    -0.59800
C868        C  0.95858972  0.91011755  0.09631465     0.00200
C869        C  0.98447726  0.88287982  0.09852758    -0.11700
C870        C  0.53672946  0.90729251  0.10312240     0.02400
C871        C  0.56496885  0.96048712  0.10329613     0.00100
C872        C  0.53888254  0.98759295  0.10138428    -0.11600
C873        C  0.98645510  0.96316410  0.09931569     0.02300
H874        H  0.96383251  0.84217484  0.09693641     0.15300
H875        H  0.55941194  0.52835494  0.10159042     0.15300
C876        C  0.96246700  0.99366145  0.10216304     0.36900
C877        C  0.55968044  0.87654285  0.10914008     0.36800
N878        N  0.94313558  0.01795893  0.10448692    -0.43400
N879        N  0.57785061  0.85171154  0.11407017    -0.43400
C880        C  0.56258452  0.95744237  0.42657579     0.00200
C881        C  0.54786949  0.97062499  0.39517077    -0.11700
C882        C  0.52078036  0.49644873  0.39611900     0.02400
C883        C  0.50890197  0.51042007  0.42895470     0.00100
C884        C  0.52379086  0.99745329  0.46034718    -0.11600
C885        C  0.54997871  0.97073590  0.45942121     0.02300
H886        H  0.55651994  0.95959659  0.36986417     0.15300
H887        H  0.51380828  0.00717836  0.48566246     0.15300
C888        C  0.56015109  0.95420500  0.49243352     0.36900
C889        C  0.50250301  0.50498594  0.36326990     0.36800
N890        N  0.56788887  0.94035193  0.01878656    -0.43400
N891        N  0.48723535  0.51149048  0.33710738    -0.43400
C892        C  0.96048842  0.90719573  0.25917226     0.00200
C893        C  0.93250896  0.93241803  0.25778886    -0.11700
C894        C  0.95606987  0.98456806  0.25287725     0.02400
C895        C  0.50923452  0.51336734  0.25172033     0.00100
C896        C  0.53699054  0.98788425  0.25298483    -0.11600
C897        C  0.01329554  0.93556224  0.25503353     0.02300
H898        H  0.89188473  0.91131617  0.26023127     0.15300
H899        H  0.57773549  0.50876739  0.25214218     0.15300
C900        C  0.54418014  0.91221629  0.25061204     0.36900
C901        C  0.92442534  0.50672108  0.24763260     0.36800
N902        N  0.56896984  0.89362934  0.24679991    -0.43400
N903        N  0.89874189  0.52409280  0.24332918    -0.43400
C904        C  0.53733921  0.56953065  0.74968862     0.03400
C905        C  0.58246793  0.59387461  0.73047763    -0.12700
C906        C  0.61389213  0.64602143  0.73253893     0.01000
C907        C  0.59851063  0.67533144  0.75216671    -0.11200
C908        C  0.55256170  0.65176831  0.77085742     0.03400
C909        C  0.52278626  0.59901811  0.76982411    -0.10600
H910        H  0.59408236  0.57197374  0.71424897     0.09000
H911        H  0.62285410  0.71568306  0.75395963     0.06600
H912        H  0.98969856  0.58084196  0.78652569     0.06400
C913        C  0.58783526  0.92683291  0.92440633     0.03400
C914        C  0.63388920  0.94255949  0.94108592    -0.12700
C915        C  0.65612767  0.91182835  0.94117545     0.01000
C916        C  0.63272517  0.86562084  0.92266887    -0.11200
C917        C  0.58676118  0.85016814  0.90520379     0.03400
C918        C  0.56460619  0.88080420  0.90653410    -0.10600
H919        H  0.65138649  0.97813249  0.95520829     0.09000
H920        H  0.64936168  0.84147582  0.92256977     0.06600
H921        H  0.52885664  0.86873116  0.89361843     0.06400
C922        C  0.93374847  0.85152996  0.76391375     0.03400
C923        C  0.95351069  0.82855843  0.78557772    -0.12700
C924        C  0.93078645  0.77603616  0.78761949     0.01000
C925        C  0.88549951  0.74576814  0.76955862    -0.11200
C926        C  0.86404266  0.76843887  0.74897895     0.03400
C927        C  0.88865965  0.82105815  0.74612178    -0.10600
H928        H  0.98714982  0.85162191  0.80081380     0.09000
H929        H  0.86791539  0.70516354  0.77077211     0.06600
H930        H  0.87371943  0.83834185  0.72860047     0.06400
In931      In  0.50810193  0.72188797  0.84498384     1.36900
C932        C  0.97869107  0.64869337  0.89225697     0.77900
O933        O  0.99237149  0.66136606  0.80587026    -0.60500
O934        O  0.56703196  0.72279746  0.80765912    -0.52400
C935        C  0.95708285  0.75450432  0.80726206     0.70600
O936        O  0.93498232  0.71411376  0.82469403    -0.46300
C937        C  0.56002444  0.80235520  0.88554041     0.75300
O938        O  0.94868294  0.66235717  0.88057273    -0.58200
O939        O  0.58173424  0.78454514  0.86651307    -0.48300
O940        O  0.52336037  0.67457678  0.88139541    -0.54600
C941        C  0.53700925  0.68008609  0.79480192     0.85500
O942        O  0.50446539  0.77655962  0.80846476    -0.56500
O943        O  0.51260499  0.77765886  0.88480707    -0.59800
C944        C  0.62118495  0.98907196  0.60495821     0.03400
C945        C  0.64555021  0.53430076  0.62398409    -0.12700
C946        C  0.69788472  0.56506458  0.62254251     0.01000
C947        C  0.72717116  0.54940095  0.60309833    -0.11200
C948        C  0.70346448  0.00360978  0.58423453     0.03400
C949        C  0.65067774  0.97421078  0.58509925    -0.10600
H950        H  0.62358970  0.54620677  0.63989089     0.09000
H951        H  0.76763315  0.57328303  0.60173291     0.06600
H952        H  0.63247853  0.94088962  0.56866179     0.06400
C953        C  0.90279151  0.88245335  0.59188427     0.03400
C954        C  0.87925103  0.90109115  0.56978752    -0.12700
C955        C  0.82672467  0.87865619  0.56860196     0.01000
C956        C  0.79683947  0.83404069  0.58749945    -0.11200
C957        C  0.81998416  0.81316260  0.60822188     0.03400
C958        C  0.87272585  0.83793059  0.61052354    -0.10600
H959        H  0.90191488  0.93396962  0.55372927     0.09000
H960        H  0.75620881  0.81658119  0.58683089     0.06600
H961        H  0.89037884  0.82361218  0.62823839     0.06400
In962      In  0.74776873  0.69674483  0.67869610     1.36900
C963        C  0.79087244  0.76843952  0.63050143     0.77900
O964        O  0.79342254  0.75824935  0.71614243    -0.60500
O965        O  0.80495879  0.69519993  0.71581922    -0.51500
C966        C  0.66354666  0.66741804  0.71536846     0.70600
O967        O  0.68406303  0.70843084  0.69867600    -0.46300
C968        C  0.71950153  0.61415627  0.64048886     0.75300
O969        O  0.74706610  0.75467613  0.64199784    -0.58200
O970        O  0.75858037  0.63228392  0.65932373    -0.48300
O971        O  0.80994627  0.74284296  0.64158374    -0.54600
C972        C  0.81891806  0.73907434  0.72720059     0.85500
O973        O  0.68769746  0.64384379  0.71484309    -0.56500
O974        O  0.69753978  0.63986376  0.63982810    -0.59800
C975        C  0.97825289  0.53557269  0.93121745     0.03400
C976        C  0.93253280  0.51259719  0.94953434    -0.12700
C977        C  0.90203047  0.53488816  0.95105986     0.01000
C978        C  0.91732061  0.58071424  0.93344954    -0.11200
C979        C  0.96319103  0.60382711  0.91451146     0.03400
C980        C  0.49375254  0.58139940  0.91426085    -0.10600
H981        H  0.92060429  0.97698853  0.96263059     0.09000
H982        H  0.89328113  0.59747363  0.93378169     0.06600
H983        H  0.52905151  0.59862734  0.89976057     0.06400
In984      In  0.77349202  0.95691133  0.51129947     1.36900
C985        C  0.70089485  0.92742132  0.96354964     0.77900
O986        O  0.71280819  0.94251095  0.55009470    -0.60500
O987        O  0.77453354  0.51687763  0.54774654    -0.51500
C988        C  0.80513664  0.90511794  0.54921302     0.70600
O989        O  0.76457961  0.88333705  0.53199380    -0.46300
C990        C  0.85437095  0.50842874  0.97092380     0.75300
O991        O  0.71428289  0.89741262  0.97562921    -0.58200
O992        O  0.83751226  0.53031488  0.99065842    -0.48300
O993        O  0.72682183  0.97214888  0.97423715    -0.54600
C994        C  0.73169951  0.98736763  0.56068296     0.85500
O995        O  0.82756595  0.95248282  0.54790125    -0.56500
O996        O  0.82871661  0.96105952  0.97098529    -0.59800
C997        C  0.95858991  0.91011781  0.59631453     0.00200
C998        C  0.98447735  0.88287996  0.59852763    -0.11700
C999        C  0.53672970  0.90729280  0.60312239     0.02400
C1000       C  0.56496908  0.96048739  0.60329619     0.00100
C1001       C  0.53888262  0.98759304  0.60138426    -0.11600
C1002       C  0.98645519  0.96316427  0.59931584     0.02300
H1003       H  0.96383332  0.84217640  0.59693638     0.15300
H1004       H  0.55941141  0.52835375  0.60159054     0.15300
C1005       C  0.96246695  0.99366146  0.60216309     0.36900
C1006       C  0.55968024  0.87654272  0.60914019     0.36800
N1007       N  0.94313541  0.01795880  0.60448710    -0.43400
N1008       N  0.57785057  0.85171154  0.61407032    -0.43400
C1009       C  0.56258452  0.95744249  0.92657586     0.00200
C1010       C  0.54786944  0.97062503  0.89517088    -0.11700
C1011       C  0.52078039  0.49644871  0.89611905     0.02400
C1012       C  0.50890188  0.51042001  0.92895487     0.00100
C1013       C  0.52379094  0.99745341  0.96034728    -0.11600
C1014       C  0.54997866  0.97073600  0.95942138     0.02300
H1015       H  0.55652023  0.95959695  0.86986416     0.15300
H1016       H  0.51380837  0.00717927  0.98566358     0.15300
C1017       C  0.56015121  0.95420513  0.99243359     0.36900
C1018       C  0.50250290  0.50498575  0.86327000     0.36800
N1019       N  0.56788875  0.94035175  0.51878649    -0.43400
N1020       N  0.48723533  0.51149044  0.83710744    -0.43400
C1021       C  0.96048851  0.90719571  0.75917213     0.00200
C1022       C  0.93250903  0.93241803  0.75778882    -0.11700
C1023       C  0.95607002  0.98456812  0.75287711     0.02400
C1024       C  0.50923426  0.51336716  0.75172018     0.00100
C1025       C  0.53699057  0.98788426  0.75298477    -0.11600
C1026       C  0.01329565  0.93556226  0.75503353     0.02300
H1027       H  0.89188547  0.91131660  0.76023118     0.15300
H1028       H  0.57773476  0.50876691  0.75214164     0.15300
C1029       C  0.54418027  0.91221646  0.75061197     0.36900
C1030       C  0.92442534  0.50672111  0.74763260     0.36800
N1031       N  0.56896986  0.89362941  0.74679980    -0.43400
N1032       N  0.89874192  0.52409287  0.74332926    -0.43400
loop_ 
_geom_bond_atom_site_label_1 
_geom_bond_atom_site_label_2 
_geom_bond_distance 
_geom_bond_site_symmetry_2 
_ccdc_geom_bond_type 
C1            C2   1.401       .  A
C1            C6   1.403       .  A
C1          C121   1.495       .  S
C2            C3   1.399       .  A
C2            H7   1.084       .  S
C3            C4   1.405       .  A
C3           C63   1.470       .  S
C4            C5   1.408       .  A
C4            H8   1.083       .  S
C5            C6   1.407       .  A
C5           C38   1.477       .  S
C6          H525   1.082   1_455  S
H9          C522   1.082       .  S
C10          C11   1.397       .  A
C10          C15   1.395       .  A
C10         C106   1.479       .  S
C11          C12   1.405       .  A
C11          H16   1.084       .  S
C12          C13   1.411       .  A
C12          C82   1.478       .  S
C13          C14   1.410       .  A
C13          H17   1.083       .  S
C14          C15   1.401       .  A
C14          C34   1.473       .  S
C15          H18   1.084       .  S
C19          C20   1.401       .  A
C19          C24   1.399       .  A
C19         C118   1.492       .  S
C20          C21   1.402       .  A
C20          H25   1.083       .  S
C21          C22   1.407       .  A
C21          C32   1.473       .  S
C22          C23   1.407       .  A
C22          H26   1.083       .  S
C23          C24   1.404       .  A
C23          C69   1.473       .  S
C24          H27   1.084       .  S
In28         O31   2.268       .  S
In28         O39   2.221       .  S
In28         O36   2.268       .  S
In28         O37   2.216       .  S
In28         O40   2.219       .  S
In28        O546   2.221   1_455  S
In28        O549   2.267   1_455  S
In28        O551   2.270   1_455  S
C29          C76   1.477       .  S
C29          O35   1.264       .  A
C29         O553   1.260       .  A
O30        In544   2.221       .  S
O30         C554   1.260       .  A
O31          C38   1.264       .  A
C32          O33   1.264       .  A
C32         O555   1.261       .  A
O33        In544   2.267       .  S
C34          O36   1.264       .  A
C34          O40   1.261       .  A
O35        In544   2.270       .  S
O37         C545   1.260   1_455  A
C38         O546   1.260   1_455  A
O39         C548   1.261   1_455  A
C41          C46   1.404       .  A
C41         C300   1.400       .  A
C41          C97   1.496       .  S
C42          C43   1.400       .  A
C42         C299   1.400   1_545  A
C42          H47   1.084       .  S
C43          C44   1.406       .  A
C43          C65   1.470       .  S
C44         C303   1.409       .  A
C44          H48   1.083       .  S
C45          C46   1.407       .  A
C45         C302   1.409       .  A
C45          C91   1.479       .  S
C46          H49   1.081       .  S
C50          C51   1.401       .  A
C50          C55   1.401       .  A
C50          C94   1.493       .  S
C51          C52   1.401       .  A
C51          H56   1.083       .  S
C52          C53   1.407       .  A
C52          C85   1.473       .  S
C53          C54   1.408       .  A
C53          H57   1.083       .  S
C54          C55   1.406       .  A
C54          C60   1.474       .  S
C55          H58   1.084       .  S
In59         O61   2.211       .  S
In59         O62   2.269       .  S
In59         O70   2.217       .  S
In59         O64   2.269       .  S
In59         O66   2.266       .  S
In59         O67   2.268       .  S
In59         O68   2.215       .  S
In59         O71   2.214       .  S
C60          O66   1.263       .  A
C60          O68   1.260       .  A
O61          C69   1.259       .  A
O62          C69   1.263       .  A
C63          O70   1.261       .  A
C63          O64   1.262       .  A
C65          O67   1.263       .  A
C65          O71   1.261       .  A
C72          C73   1.396       .  A
C72         C593   1.397       .  A
C72         C625   1.478       .  S
C73          C74   1.401       .  A
C73         H336   1.085   1_545  S
C74          C75   1.409       .  A
C74          C87   1.472       .  S
C75          C76   1.411       .  A
C75          H79   1.083       .  S
C76         C593   1.405       .  A
C77         C588   1.397       .  A
C77         C592   1.405       .  A
C77          H80   1.084   1_655  S
H78         C331   1.085       .  S
In81         O83   2.223       .  S
In81         O92   2.219       .  S
In81         O86   2.272       .  S
In81        O342   2.272       .  S
In81        O217   2.270   1_554  S
In81        O476   2.267   1_554  S
In81        O219   2.216   1_554  S
In81        O222   2.222   1_554  S
C82          O88   1.264       .  A
C82          O90   1.260       .  A
O83          C91   1.260       .  A
O84        In339   2.272   1_545  S
O84         C349   1.264   1_545  A
C85          O92   1.261       .  A
C85          O86   1.263       .  A
C87          O89   1.263       .  A
C87         O351   1.261   1_545  A
O88        In210   2.270       .  S
O89        In468   2.267   1_545  S
O90        In210   2.216       .  S
C91         O342   1.264       .  A
O93        In210   2.222       .  S
O93         C345   1.261       .  A
C94          C95   1.407       .  A
C94          C99   1.415       .  A
C95         C612   1.401       .  A
C95         H100   1.084       .  S
C96          C97   1.415       .  A
C96         C611   1.401   1_455  A
C96         C103   1.444       .  S
C97          C98   1.408       .  A
C98         C615   1.397   1_455  A
C98         H359   1.084       .  S
C99         C614   1.397       .  A
C99         C102   1.446       .  S
H101        C356   1.084   1_545  S
C102        N104   1.158       .  T
C103        N105   1.157       .  T
C106        C107   1.403       .  A
C106        C111   1.412       .  A
C107        C366   1.398       .  A
C107        H112   1.085       .  S
C108        C109   1.411   1_565  A
C108        C365   1.398       .  A
C108        C115   1.443   1_565  S
C109        C368   1.402   1_545  A
C109        C588   1.478   1_455  S
C110        C111   1.398       .  A
C110        C367   1.402       .  A
C110        H113   1.085       .  S
C111        C114   1.442       .  S
C114        N245   1.156       .  T
C115        N117   1.156   1_455  T
N116        C243   1.156   1_554  T
C118        C119   1.407       .  A
C118        C123   1.413       .  A
C119        C120   1.401       .  A
C119        H124   1.084       .  S
C120        C895   1.416       .  A
C120        C385   1.444       .  S
C121        C894   1.416   1_445  A
C121        C380   1.408   1_545  A
C122        C379   1.408       .  A
C122        C639   1.395       .  A
C122        H383   1.084       .  S
C123        C638   1.395       .  A
C123        C642   1.445       .  S
H125        C380   1.084   1_545  S
C126        C639   1.445       .  S
C126        N128   1.157       .  T
C127        C378   1.444   1_545  S
C127        N129   1.157       .  T
C130        C131   1.401       .  A
C130        C135   1.403       .  A
C130        C250   1.495       .  S
C131        C132   1.399       .  A
C131        H136   1.084       .  S
C132        C133   1.405       .  A
C132        C192   1.470       .  S
C133        C134   1.408       .  A
C133        H137   1.083       .  S
C134        C135   1.407       .  A
C134        C167   1.477       .  S
C135        H654   1.082   1_455  S
H138        C651   1.082       .  S
C139        C140   1.397       .  A
C139        C144   1.395       .  A
C139        C235   1.479       .  S
C140        C141   1.405       .  A
C140        H145   1.084       .  S
C141        C142   1.411       .  A
C141        C211   1.478       .  S
C142        C143   1.410       .  A
C142        H146   1.083       .  S
C143        C144   1.401       .  A
C143        C163   1.473       .  S
C144        H147   1.084       .  S
C148        C149   1.401       .  A
C148        C153   1.399       .  A
C148        C247   1.492       .  S
C149        C150   1.402       .  A
C149        H154   1.083       .  S
C150        C151   1.407       .  A
C150        C161   1.473       .  S
C151        C152   1.407       .  A
C151        H155   1.083       .  S
C152        C153   1.404       .  A
C152        C198   1.473       .  S
C153        H156   1.084       .  S
In157       O675   2.221   1_455  S
In157       O160   2.268       .  S
In157       O168   2.221       .  S
In157       O678   2.267   1_455  S
In157       O680   2.270   1_455  S
In157       O165   2.268       .  S
In157       O166   2.216       .  S
In157       O169   2.219       .  S
C158        C205   1.477       .  S
C158        O164   1.264       .  A
C158        O682   1.260       .  A
O159       In673   2.221       .  S
O159        C683   1.260       .  A
O160        C167   1.264       .  A
C161        O684   1.261       .  A
C161        O162   1.264       .  A
O162       In673   2.267       .  S
C163        O165   1.264       .  A
C163        O169   1.261       .  A
O164       In673   2.270       .  S
O166        C674   1.260   1_455  A
C167        O675   1.260   1_455  A
O168        C677   1.261   1_455  A
C170        C429   1.400       .  A
C170        C175   1.404       .  A
C170        C226   1.496       .  S
C171        C428   1.400   1_545  A
C171        C172   1.400       .  A
C171        H176   1.084       .  S
C172        C173   1.406       .  A
C172        C194   1.470       .  S
C173        C432   1.409       .  A
C173        H177   1.083       .  S
C174        C431   1.409       .  A
C174        C175   1.407       .  A
C174        C220   1.479       .  S
C175        H178   1.081       .  S
C179        C180   1.401       .  A
C179        C184   1.401       .  A
C179        C223   1.493       .  S
C180        C181   1.401       .  A
C180        H185   1.083       .  S
C181        C182   1.407       .  A
C181        C214   1.473       .  S
C182        C183   1.408       .  A
C182        H186   1.083       .  S
C183        C184   1.406       .  A
C183        C189   1.474       .  S
C184        H187   1.084       .  S
In188       O190   2.211       .  S
In188       O191   2.269       .  S
In188       O199   2.217       .  S
In188       O193   2.269       .  S
In188       O195   2.266       .  S
In188       O196   2.268       .  S
In188       O197   2.215       .  S
In188       O200   2.214       .  S
C189        O195   1.263       .  A
C189        O197   1.260       .  A
O190        C198   1.259       .  A
O191        C198   1.263       .  A
C192        O199   1.261       .  A
C192        O193   1.262       .  A
C194        O196   1.263       .  A
C194        O200   1.261       .  A
C201        C202   1.396       .  A
C201        C722   1.397       .  A
C201        C754   1.478       .  S
C202        C203   1.401       .  A
C202        H465   1.085   1_545  S
C203        C204   1.409       .  A
C203        C216   1.472       .  S
C204        C205   1.411       .  A
C204        H208   1.083       .  S
C205        C722   1.405       .  A
C206        C717   1.397       .  A
C206        C721   1.405       .  A
C206        H209   1.084   1_655  S
H207        C460   1.085       .  S
In210       O212   2.223       .  S
In210       O471   2.272       .  S
In210       O221   2.219       .  S
In210       O215   2.272       .  S
In210       O347   2.267       .  S
C211        O217   1.264       .  A
C211        O219   1.260       .  A
O212        C220   1.260       .  A
O213       In468   2.272   1_545  S
O213        C478   1.264   1_545  A
C214        O221   1.261       .  A
C214        O215   1.263       .  A
C216        O218   1.263       .  A
C216        O480   1.261   1_545  A
O218       In339   2.267   1_546  S
C220        O471   1.264       .  A
O222        C474   1.261       .  A
C223        C224   1.407       .  A
C223        C228   1.415       .  A
C224        C741   1.401       .  A
C224        H229   1.084       .  S
C225        C740   1.401   1_455  A
C225        C226   1.415       .  A
C225        C232   1.444       .  S
C226        C227   1.408       .  A
C227        C744   1.397   1_455  A
C227        H488   1.084       .  S
C228        C743   1.397       .  A
C228        C231   1.446       .  S
H230        C485   1.084   1_545  S
C231        N233   1.158       .  T
C232        N234   1.157       .  T
C235        C236   1.403       .  A
C235        C240   1.412       .  A
C236        C495   1.398       .  A
C236        H241   1.085       .  S
C237        C494   1.398       .  A
C237        C238   1.411   1_565  A
C237        C244   1.443   1_565  S
C238        C497   1.402   1_545  A
C238        C717   1.478   1_455  S
C239        C496   1.402       .  A
C239        C240   1.398       .  A
C239        H242   1.085       .  S
C240        C243   1.442       .  S
C244        N246   1.156   1_455  T
C247        C248   1.407       .  A
C247        C252   1.413       .  A
C248        C249   1.401       .  A
C248        H253   1.084       .  S
C249       C1024   1.416       .  A
C249        C514   1.444       .  S
C250       C1023   1.416   1_445  A
C250        C509   1.408   1_545  A
C251        C508   1.408       .  A
C251        C768   1.395       .  A
C251        H512   1.084       .  S
C252        C767   1.395       .  A
C252        C771   1.445       .  S
H254        C509   1.084   1_545  S
C255        C768   1.445       .  S
C255        N257   1.157       .  T
C256        C507   1.444   1_545  S
C256        N258   1.157       .  T
C259        C260   1.401       .  A
C259        C264   1.403       .  A
C259        C379   1.495       .  S
C260        C261   1.399       .  A
C260        H265   1.084       .  S
C261        C262   1.405       .  A
C261        C321   1.470       .  S
C262        C263   1.408       .  A
C262        H266   1.083       .  S
C263        C264   1.407       .  A
C263        C296   1.477       .  S
C264        H783   1.082   1_455  S
H267        C780   1.082       .  S
C268        C269   1.397       .  A
C268        C273   1.395       .  A
C268        C364   1.479       .  S
C269        C270   1.405       .  A
C269        H274   1.084       .  S
C270        C271   1.411       .  A
C270        C340   1.478       .  S
C271        C272   1.410       .  A
C271        H275   1.083       .  S
C272        C273   1.401       .  A
C272        C292   1.473       .  S
C273        H276   1.085       .  S
C277        C278   1.401       .  A
C277        C282   1.399       .  A
C277        C376   1.492       .  S
C278        C279   1.402       .  A
C278        H283   1.083       .  S
C279        C280   1.407       .  A
C279        C290   1.473       .  S
C280        C281   1.407       .  A
C280        H284   1.083       .  S
C281        C282   1.404       .  A
C281        C327   1.473       .  S
C282        H285   1.084       .  S
In286       O804   2.221   1_455  S
In286       O289   2.268       .  S
In286       O297   2.221       .  S
In286       O807   2.267   1_455  S
In286       O809   2.270   1_455  S
In286       O294   2.268       .  S
In286       O295   2.216       .  S
In286       O298   2.219       .  S
C287        C334   1.477       .  S
C287        O293   1.264       .  A
C287        O811   1.260       .  A
O288       In802   2.221       .  S
O288        C812   1.260       .  A
O289        C296   1.264       .  A
C290        O813   1.261       .  A
C290        O291   1.264       .  A
O291       In802   2.267       .  S
C292        O294   1.264       .  A
C292        O298   1.261       .  A
O293       In802   2.270       .  S
O295        C803   1.260   1_455  A
C296        O804   1.260   1_455  A
O297        C806   1.261   1_455  A
C299        C304   1.404       .  A
C299        C355   1.496       .  S
C300        C301   1.400       .  A
C300        H305   1.084       .  S
C301        C302   1.406       .  A
C301        C323   1.470       .  S
C302        H306   1.083       .  S
C303        C304   1.407   1_545  A
C303        C349   1.479   1_545  S
C304        H307   1.081       .  S
C308        C309   1.401       .  A
C308        C313   1.401       .  A
C308        C352   1.493       .  S
C309        C310   1.401       .  A
C309        H314   1.083       .  S
C310        C311   1.407       .  A
C310        C343   1.473       .  S
C311        C312   1.408       .  A
C311        H315   1.083       .  S
C312        C313   1.406       .  A
C312        C318   1.474       .  S
C313        H316   1.084       .  S
In317       O319   2.211       .  S
In317       O320   2.269       .  S
In317       O328   2.217       .  S
In317       O322   2.269       .  S
In317       O324   2.266       .  S
In317       O325   2.268       .  S
In317       O326   2.215       .  S
In317       O329   2.214       .  S
C318        O324   1.263       .  A
C318        O326   1.260       .  A
O319        C327   1.259       .  A
O320        C327   1.263       .  A
C321        O328   1.261       .  A
C321        O322   1.262       .  A
C323        O325   1.263       .  A
C323        O329   1.261       .  A
C330        C331   1.396       .  A
C330        C851   1.397       .  A
C330        C883   1.478       .  S
C331        C332   1.401       .  A
C332        C333   1.409       .  A
C332        C345   1.472       .  S
C333        C334   1.411       .  A
C333        H337   1.083       .  S
C334        C851   1.405       .  A
C335        C846   1.397       .  A
C335        C850   1.405       .  A
C335        H338   1.084   1_655  S
In339       O341   2.223       .  S
In339       O350   2.219       .  S
In339       O344   2.272       .  S
In339       O475   2.270   1_554  S
In339       O477   2.216   1_554  S
In339       O480   2.222   1_554  S
C340        O346   1.264       .  A
C340        O348   1.260       .  A
O341        C349   1.260       .  A
C343        O350   1.261       .  A
C343        O344   1.263       .  A
C345        O347   1.263       .  A
O346       In468   2.270       .  S
O348       In468   2.216       .  S
O351       In468   2.222       .  S
C352        C353   1.407       .  A
C352        C357   1.415       .  A
C353        C870   1.401       .  A
C353        H358   1.084       .  S
C354        C869   1.401   1_455  A
C354        C355   1.415       .  A
C354        C361   1.444       .  S
C355        C356   1.408       .  A
C356        C873   1.397   1_455  A
C357        C872   1.397       .  A
C357        C360   1.446       .  S
C360        N362   1.158   1_565  T
C361        N363   1.157       .  T
C364        C365   1.403       .  A
C364        C369   1.412       .  A
C365        H370   1.085       .  S
C366        C367   1.411       .  A
C366        C373   1.443       .  S
C367        C846   1.478   1_455  S
C368        C369   1.398       .  A
C368        H371   1.085   1_565  S
C369        C372   1.442       .  S
C372        N503   1.156       .  T
C373        N375   1.156   1_455  T
N374        C501   1.156   1_554  T
C376        C377   1.407       .  A
C376        C381   1.413       .  A
C377        C378   1.401       .  A
C377        H382   1.084       .  S
C378        C637   1.416   1_565  A
C379        C636   1.416   1_455  A
C380        C897   1.395       .  A
C381        C896   1.395       .  A
C381        C900   1.445       .  S
C384        C897   1.445       .  S
C384        N386   1.157       .  T
C385        N387   1.157       .  T
C388        C389   1.401       .  A
C388        C393   1.403       .  A
C388        C508   1.495       .  S
C389        C390   1.399       .  A
C389        H394   1.084       .  S
C390        C391   1.405       .  A
C390        C450   1.470       .  S
C391        C392   1.408       .  A
C391        H395   1.083       .  S
C392        C393   1.407       .  A
C392        C425   1.477       .  S
C393        H912   1.082   1_455  S
H396        C909   1.082       .  S
C397        C398   1.397       .  A
C397        C402   1.395       .  A
C397        C493   1.479       .  S
C398        C399   1.405       .  A
C398        H403   1.084       .  S
C399        C400   1.411       .  A
C399        C469   1.478       .  S
C400        C401   1.410       .  A
C400        H404   1.083       .  S
C401        C402   1.401       .  A
C401        C421   1.473       .  S
C402        H405   1.085       .  S
C406        C407   1.401       .  A
C406        C411   1.399       .  A
C406        C505   1.492       .  S
C407        C408   1.402       .  A
C407        H412   1.083       .  S
C408        C409   1.407       .  A
C408        C419   1.473       .  S
C409        C410   1.407       .  A
C409        H413   1.083       .  S
C410        C411   1.404       .  A
C410        C456   1.473       .  S
C411        H414   1.084       .  S
In415       O933   2.221   1_455  S
In415       O418   2.268       .  S
In415       O426   2.221       .  S
In415       O936   2.267   1_455  S
In415       O938   2.270   1_455  S
In415       O423   2.268       .  S
In415       O424   2.216       .  S
In415       O427   2.219       .  S
C416        C463   1.477       .  S
C416        O422   1.264       .  A
C416        O940   1.260       .  A
O417       In931   2.221       .  S
O417        C941   1.260       .  A
O418        C425   1.264       .  A
C419        O942   1.261       .  A
C419        O420   1.264       .  A
O420       In931   2.267       .  S
C421        O423   1.264       .  A
C421        O427   1.261       .  A
O422       In931   2.270       .  S
O424        C932   1.260   1_455  A
C425        O933   1.260   1_455  A
O426        C935   1.261   1_455  A
C428        C433   1.404       .  A
C428        C484   1.496       .  S
C429        C430   1.400       .  A
C429        H434   1.084       .  S
C430        C431   1.406       .  A
C430        C452   1.470       .  S
C431        H435   1.083       .  S
C432        C433   1.407   1_545  A
C432        C478   1.479   1_545  S
C433        H436   1.081       .  S
C437        C438   1.401       .  A
C437        C442   1.401       .  A
C437        C481   1.493       .  S
C438        C439   1.401       .  A
C438        H443   1.083       .  S
C439        C440   1.407       .  A
C439        C472   1.473       .  S
C440        C441   1.408       .  A
C440        H444   1.083       .  S
C441        C442   1.406       .  A
C441        C447   1.474       .  S
C442        H445   1.084       .  S
In446       O448   2.211       .  S
In446       O449   2.269       .  S
In446       O457   2.217       .  S
In446       O451   2.269       .  S
In446       O453   2.266       .  S
In446       O454   2.268       .  S
In446       O455   2.215       .  S
In446       O458   2.214       .  S
C447        O453   1.263       .  A
C447        O455   1.260       .  A
O448        C456   1.259       .  A
O449        C456   1.263       .  A
C450        O457   1.261       .  A
C450        O451   1.262       .  A
C452        O454   1.263       .  A
C452        O458   1.261       .  A
C459        C460   1.396       .  A
C459        C980   1.397       .  A
C459       C1012   1.478       .  S
C460        C461   1.401       .  A
C461        C462   1.409       .  A
C461        C474   1.472       .  S
C462        C463   1.411       .  A
C462        H466   1.083       .  S
C463        C980   1.405       .  A
C464        C975   1.397       .  A
C464        C979   1.405       .  A
C464        H467   1.084   1_655  S
In468       O470   2.223       .  S
In468       O479   2.219       .  S
In468       O473   2.272       .  S
C469        O475   1.264       .  A
C469        O477   1.260       .  A
O470        C478   1.260       .  A
C472        O479   1.261       .  A
C472        O473   1.263       .  A
C474        O476   1.263       .  A
C481        C482   1.407       .  A
C481        C486   1.415       .  A
C482        C999   1.401       .  A
C482        H487   1.084       .  S
C483        C998   1.401   1_455  A
C483        C484   1.415       .  A
C483        C490   1.444       .  S
C484        C485   1.408       .  A
C485       C1002   1.397   1_455  A
C486       C1001   1.397       .  A
C486        C489   1.446       .  S
C489        N491   1.158   1_565  T
C490        N492   1.157       .  T
C493        C494   1.403       .  A
C493        C498   1.412       .  A
C494        H499   1.085       .  S
C495        C496   1.411       .  A
C495        C502   1.443       .  S
C496        C975   1.478   1_455  S
C497        C498   1.398       .  A
C497        H500   1.085   1_565  S
C498        C501   1.442       .  S
C502        N504   1.156   1_455  T
C505        C506   1.407       .  A
C505        C510   1.413       .  A
C506        C507   1.401       .  A
C506        H511   1.084       .  S
C507        C766   1.416   1_565  A
C508        C765   1.416   1_455  A
C509       C1026   1.395       .  A
C510       C1025   1.395       .  A
C510       C1029   1.445       .  S
C513       C1026   1.445       .  S
C513        N515   1.157       .  T
C514        N516   1.157       .  T
C517        C518   1.401       .  A
C517        C522   1.403       .  A
C517        C637   1.495       .  S
C518        C519   1.399       .  A
C518        H523   1.084       .  S
C519        C520   1.405       .  A
C519        C579   1.470       .  S
C520        C521   1.408       .  A
C520        H524   1.083       .  S
C521        C522   1.407       .  A
C521        C554   1.477       .  S
C526        C527   1.397       .  A
C526        C531   1.395       .  A
C526        C622   1.479       .  S
C527        C528   1.405       .  A
C527        H532   1.084       .  S
C528        C529   1.411       .  A
C528        C598   1.478       .  S
C529        C530   1.410       .  A
C529        H533   1.083       .  S
C530        C531   1.401       .  A
C530        C550   1.473       .  S
C531        H534   1.085       .  S
C535        C536   1.401       .  A
C535        C540   1.399       .  A
C535        C634   1.492       .  S
C536        C537   1.402       .  A
C536        H541   1.083       .  S
C537        C538   1.407       .  A
C537        C548   1.473       .  S
C538        C539   1.407       .  A
C538        H542   1.083       .  S
C539        C540   1.404       .  A
C539        C585   1.473       .  S
C540        H543   1.084       .  S
In544       O547   2.268       .  S
In544       O555   2.221       .  S
In544       O552   2.268       .  S
In544       O553   2.216       .  S
In544       O556   2.219       .  S
C545        C592   1.477       .  S
C545        O551   1.264       .  A
O547        C554   1.264       .  A
C548        O549   1.264       .  A
C550        O552   1.264       .  A
C550        O556   1.261       .  A
C557        C816   1.400       .  A
C557        C562   1.404       .  A
C557        C613   1.496       .  S
C558        C815   1.400   1_545  A
C558        C559   1.400       .  A
C558        H563   1.084       .  S
C559        C560   1.406       .  A
C559        C581   1.470       .  S
C560        C819   1.409       .  A
C560        H564   1.083       .  S
C561        C818   1.409       .  A
C561        C562   1.407       .  A
C561        C607   1.479       .  S
C562        H565   1.081       .  S
C566        C567   1.401       .  A
C566        C571   1.401       .  A
C566        C610   1.493       .  S
C567        C568   1.401       .  A
C567        H572   1.083       .  S
C568        C569   1.407       .  A
C568        C601   1.473       .  S
C569        C570   1.408       .  A
C569        H573   1.083       .  S
C570        C571   1.406       .  A
C570        C576   1.474       .  S
C571        H574   1.084       .  S
In575       O577   2.211       .  S
In575       O578   2.269       .  S
In575       O586   2.217       .  S
In575       O580   2.269       .  S
In575       O582   2.266       .  S
In575       O583   2.268       .  S
In575       O584   2.215       .  S
In575       O587   2.214       .  S
C576        O582   1.263       .  A
C576        O584   1.260       .  A
O577        C585   1.259       .  A
O578        C585   1.263       .  A
C579        O586   1.261       .  A
C579        O580   1.262       .  A
C581        O583   1.263       .  A
C581        O587   1.261       .  A
C588        C589   1.396       .  A
C589        C590   1.401       .  A
C589        H852   1.085   1_545  S
C590        C591   1.409       .  A
C590        C603   1.472       .  S
C591        C592   1.411       .  A
C591        H595   1.083       .  S
C593        H596   1.084       .  S
H594        C847   1.085       .  S
In597       O599   2.223       .  S
In597       O858   2.272       .  S
In597       O608   2.219       .  S
In597       O602   2.272       .  S
In597       O733   2.270   1_554  S
In597       O992   2.267   1_554  S
In597       O735   2.216   1_554  S
In597       O738   2.222   1_554  S
C598        O604   1.264       .  A
C598        O606   1.260       .  A
O599        C607   1.260       .  A
O600       In855   2.272   1_545  S
O600        C865   1.264   1_545  A
C601        O608   1.261       .  A
C601        O602   1.263       .  A
C603        O605   1.263       .  A
C603        O867   1.261   1_545  A
O604       In726   2.270       .  S
O605       In984   2.267   1_545  S
O606       In726   2.216       .  S
C607        O858   1.264       .  A
O609       In726   2.222       .  S
O609        C861   1.261       .  A
C610        C611   1.407       .  A
C610        C615   1.415       .  A
C611        H616   1.084       .  S
C612        C613   1.415       .  A
C612        C619   1.444       .  S
C613        C614   1.408       .  A
C614        H875   1.084       .  S
C615        C618   1.446       .  S
H617        C872   1.084   1_545  S
C618        N620   1.158       .  T
C619        N621   1.157       .  T
C622        C623   1.403       .  A
C622        C627   1.412       .  A
C623        C882   1.398       .  A
C623        H628   1.085       .  S
C624        C881   1.398       .  A
C624        C625   1.411   1_565  A
C624        C631   1.443   1_565  S
C625        C884   1.402   1_545  A
C626        C883   1.402       .  A
C626        C627   1.398       .  A
C626        H629   1.085       .  S
C627        C630   1.442       .  S
C630        N761   1.156       .  T
C631        N633   1.156       .  T
N632        C759   1.156   1_554  T
C634        C635   1.407       .  A
C634        C639   1.413   1_655  A
C635        C636   1.401       .  A
C635        H640   1.084       .  S
C636        C901   1.444       .  S
C637        C896   1.408   1_545  A
C638        C895   1.408       .  A
C638        H899   1.084       .  S
H641        C896   1.084   1_545  S
C642        N644   1.157       .  T
C643        C894   1.444   1_545  S
C643        N645   1.157       .  T
C646        C647   1.401       .  A
C646        C651   1.403       .  A
C646        C766   1.495       .  S
C647        C648   1.399       .  A
C647        H652   1.084       .  S
C648        C649   1.405       .  A
C648        C708   1.470       .  S
C649        C650   1.408       .  A
C649        H653   1.083       .  S
C650        C651   1.407       .  A
C650        C683   1.477       .  S
C655        C656   1.397       .  A
C655        C660   1.395       .  A
C655        C751   1.479       .  S
C656        C657   1.405       .  A
C656        H661   1.084       .  S
C657        C658   1.411       .  A
C657        C727   1.478       .  S
C658        C659   1.410       .  A
C658        H662   1.083       .  S
C659        C660   1.401       .  A
C659        C679   1.473       .  S
C660        H663   1.085       .  S
C664        C665   1.401       .  A
C664        C669   1.399       .  A
C664        C763   1.492       .  S
C665        C666   1.402       .  A
C665        H670   1.083       .  S
C666        C667   1.407       .  A
C666        C677   1.473       .  S
C667        C668   1.407       .  A
C667        H671   1.083       .  S
C668        C669   1.404       .  A
C668        C714   1.473       .  S
C669        H672   1.084       .  S
In673       O676   2.268       .  S
In673       O684   2.221       .  S
In673       O681   2.268       .  S
In673       O682   2.216       .  S
In673       O685   2.219       .  S
C674        C721   1.477       .  S
C674        O680   1.264       .  A
O676        C683   1.264       .  A
C677        O678   1.264       .  A
C679        O681   1.264       .  A
C679        O685   1.261       .  A
C686        C945   1.400       .  A
C686        C691   1.404       .  A
C686        C742   1.496       .  S
C687        C944   1.400   1_545  A
C687        C688   1.400       .  A
C687        H692   1.084       .  S
C688        C689   1.406       .  A
C688        C710   1.470       .  S
C689        C948   1.409       .  A
C689        H693   1.083       .  S
C690        C947   1.409       .  A
C690        C691   1.407       .  A
C690        C736   1.479       .  S
C691        H694   1.081       .  S
C695        C696   1.401       .  A
C695        C700   1.401       .  A
C695        C739   1.493       .  S
C696        C697   1.401       .  A
C696        H701   1.083       .  S
C697        C698   1.407       .  A
C697        C730   1.473       .  S
C698        C699   1.408       .  A
C698        H702   1.083       .  S
C699        C700   1.406       .  A
C699        C705   1.474       .  S
C700        H703   1.084       .  S
In704       O706   2.211       .  S
In704       O707   2.269       .  S
In704       O715   2.217       .  S
In704       O709   2.269       .  S
In704       O711   2.266       .  S
In704       O712   2.268       .  S
In704       O713   2.215       .  S
In704       O716   2.214       .  S
C705        O711   1.263       .  A
C705        O713   1.260       .  A
O706        C714   1.259       .  A
O707        C714   1.263       .  A
C708        O715   1.261       .  A
C708        O709   1.262       .  A
C710        O712   1.263       .  A
C710        O716   1.261       .  A
C717        C718   1.396       .  A
C718        C719   1.401       .  A
C718        H981   1.085   1_545  S
C719        C720   1.409       .  A
C719        C732   1.472       .  S
C720        C721   1.411       .  A
C720        H724   1.083       .  S
C722        H725   1.084       .  S
H723        C976   1.085       .  S
In726       O728   2.223       .  S
In726       O987   2.272       .  S
In726       O737   2.219       .  S
In726       O731   2.272       .  S
In726       O863   2.267       .  S
C727        O733   1.264       .  A
C727        O735   1.260       .  A
O728        C736   1.260       .  A
O729       In984   2.272   1_545  S
O729        C994   1.264   1_545  A
C730        O737   1.261       .  A
C730        O731   1.263       .  A
C732        O734   1.263       .  A
C732        O996   1.261   1_545  A
O734       In855   2.267   1_546  S
C736        O987   1.264       .  A
O738        C990   1.261       .  A
C739        C740   1.407       .  A
C739        C744   1.415       .  A
C740        H745   1.084       .  S
C741        C742   1.415       .  A
C741        C748   1.444       .  S
C742        C743   1.408       .  A
C743       H1004   1.084       .  S
C744        C747   1.446       .  S
H746       C1001   1.084   1_545  S
C747        N749   1.158       .  T
C748        N750   1.157       .  T
C751        C752   1.403       .  A
C751        C756   1.412       .  A
C752       C1011   1.398       .  A
C752        H757   1.085       .  S
C753       C1010   1.398       .  A
C753        C754   1.411   1_565  A
C753        C760   1.443   1_565  S
C754       C1013   1.402   1_545  A
C755       C1012   1.402       .  A
C755        C756   1.398       .  A
C755        H758   1.085       .  S
C756        C759   1.442       .  S
C760        N762   1.156       .  T
C763        C764   1.407       .  A
C763        C768   1.413   1_655  A
C764        C765   1.401       .  A
C764        H769   1.084       .  S
C765       C1030   1.444       .  S
C766       C1025   1.408   1_545  A
C767       C1024   1.408       .  A
C767       H1028   1.084       .  S
H770       C1025   1.084   1_545  S
C771        N773   1.157       .  T
C772       C1023   1.444   1_545  S
C772        N774   1.157       .  T
C775        C776   1.401       .  A
C775        C780   1.403       .  A
C775        C895   1.495       .  S
C776        C777   1.399       .  A
C776        H781   1.084       .  S
C777        C778   1.405       .  A
C777        C837   1.470       .  S
C778        C779   1.408       .  A
C778        H782   1.083       .  S
C779        C780   1.407       .  A
C779        C812   1.477       .  S
C784        C785   1.397       .  A
C784        C789   1.395       .  A
C784        C880   1.479       .  S
C785        C786   1.405       .  A
C785        H790   1.084       .  S
C786        C787   1.411       .  A
C786        C856   1.478       .  S
C787        C788   1.410       .  A
C787        H791   1.083       .  S
C788        C789   1.401       .  A
C788        C808   1.473       .  S
C789        H792   1.085       .  S
C793        C794   1.401       .  A
C793        C798   1.399       .  A
C793        C892   1.492       .  S
C794        C795   1.402       .  A
C794        H799   1.083       .  S
C795        C796   1.407       .  A
C795        C806   1.473       .  S
C796        C797   1.407       .  A
C796        H800   1.083       .  S
C797        C798   1.404       .  A
C797        C843   1.473       .  S
C798        H801   1.084       .  S
In802       O805   2.268       .  S
In802       O813   2.221       .  S
In802       O810   2.268       .  S
In802       O811   2.216       .  S
In802       O814   2.219       .  S
C803        C850   1.477       .  S
C803        O809   1.264       .  A
O805        C812   1.264       .  A
C806        O807   1.264       .  A
C808        O810   1.264       .  A
C808        O814   1.261       .  A
C815        C820   1.404       .  A
C815        C871   1.496       .  S
C816        C817   1.400       .  A
C816        H821   1.084       .  S
C817        C818   1.406       .  A
C817        C839   1.470       .  S
C818        H822   1.083       .  S
C819        C820   1.407   1_545  A
C819        C865   1.479   1_545  S
C820        H823   1.081       .  S
C824        C825   1.401       .  A
C824        C829   1.401       .  A
C824        C868   1.493       .  S
C825        C826   1.401       .  A
C825        H830   1.083       .  S
C826        C827   1.407       .  A
C826        C859   1.473       .  S
C827        C828   1.408       .  A
C827        H831   1.083       .  S
C828        C829   1.406       .  A
C828        C834   1.474       .  S
C829        H832   1.084       .  S
In833       O835   2.211       .  S
In833       O836   2.269       .  S
In833       O844   2.217       .  S
In833       O838   2.269       .  S
In833       O840   2.266       .  S
In833       O841   2.268       .  S
In833       O842   2.215       .  S
In833       O845   2.214       .  S
C834        O840   1.263       .  A
C834        O842   1.260       .  A
O835        C843   1.259       .  A
O836        C843   1.263       .  A
C837        O844   1.261       .  A
C837        O838   1.262       .  A
C839        O841   1.263       .  A
C839        O845   1.261       .  A
C846        C847   1.396       .  A
C847        C848   1.401       .  A
C848        C849   1.409       .  A
C848        C861   1.472       .  S
C849        C850   1.411       .  A
C849        H853   1.083       .  S
C851        H854   1.084       .  S
In855       O857   2.223       .  S
In855       O866   2.219       .  S
In855       O860   2.272       .  S
In855       O991   2.270   1_554  S
In855       O993   2.216   1_554  S
In855       O996   2.222   1_554  S
C856        O862   1.264       .  A
C856        O864   1.260       .  A
O857        C865   1.260       .  A
C859        O866   1.261       .  A
C859        O860   1.263       .  A
C861        O863   1.263       .  A
O862       In984   2.270       .  S
O864       In984   2.216       .  S
O867       In984   2.222       .  S
C868        C869   1.407       .  A
C868        C873   1.415       .  A
C869        H874   1.084       .  S
C870        C871   1.415       .  A
C870        C877   1.444       .  S
C871        C872   1.408       .  A
C873        C876   1.446       .  S
C876        N878   1.158   1_565  T
C877        N879   1.157       .  T
C880        C881   1.403       .  A
C880        C885   1.412       .  A
C881        H886   1.085       .  S
C882        C883   1.411       .  A
C882        C889   1.443       .  S
C884        C885   1.398       .  A
C884        H887   1.085   1_565  S
C885        C888   1.442       .  S
C888       N1019   1.156       .  T
C889        N891   1.156       .  T
N890       C1017   1.156   1_554  T
C892        C893   1.407       .  A
C892        C897   1.413   1_655  A
C893        C894   1.401       .  A
C893        H898   1.084       .  S
C900        N902   1.157       .  T
C901        N903   1.157       .  T
C904        C905   1.401       .  A
C904        C909   1.403       .  A
C904       C1024   1.495       .  S
C905        C906   1.399       .  A
C905        H910   1.084       .  S
C906        C907   1.405       .  A
C906        C966   1.470       .  S
C907        C908   1.408       .  A
C907        H911   1.083       .  S
C908        C909   1.407       .  A
C908        C941   1.477       .  S
C913        C914   1.397       .  A
C913        C918   1.395       .  A
C913       C1009   1.479       .  S
C914        C915   1.405       .  A
C914        H919   1.084       .  S
C915        C916   1.411       .  A
C915        C985   1.478       .  S
C916        C917   1.410       .  A
C916        H920   1.083       .  S
C917        C918   1.401       .  A
C917        C937   1.473       .  S
C918        H921   1.085       .  S
C922        C923   1.401       .  A
C922        C927   1.399       .  A
C922       C1021   1.492       .  S
C923        C924   1.402       .  A
C923        H928   1.083       .  S
C924        C925   1.407       .  A
C924        C935   1.473       .  S
C925        C926   1.407       .  A
C925        H929   1.083       .  S
C926        C927   1.404       .  A
C926        C972   1.473       .  S
C927        H930   1.084       .  S
In931       O934   2.268       .  S
In931       O942   2.221       .  S
In931       O939   2.268       .  S
In931       O940   2.216       .  S
In931       O943   2.219       .  S
C932        C979   1.477       .  S
C932        O938   1.264       .  A
O934        C941   1.264       .  A
C935        O936   1.264       .  A
C937        O939   1.264       .  A
C937        O943   1.261       .  A
C944        C949   1.404       .  A
C944       C1000   1.496       .  S
C945        C946   1.400       .  A
C945        H950   1.084       .  S
C946        C947   1.406       .  A
C946        C968   1.470       .  S
C947        H951   1.083       .  S
C948        C949   1.407   1_545  A
C948        C994   1.479   1_545  S
C949        H952   1.081       .  S
C953        C954   1.401       .  A
C953        C958   1.401       .  A
C953        C997   1.493       .  S
C954        C955   1.401       .  A
C954        H959   1.083       .  S
C955        C956   1.407       .  A
C955        C988   1.473       .  S
C956        C957   1.408       .  A
C956        H960   1.083       .  S
C957        C958   1.406       .  A
C957        C963   1.474       .  S
C958        H961   1.084       .  S
In962       O964   2.211       .  S
In962       O965   2.269       .  S
In962       O973   2.217       .  S
In962       O967   2.269       .  S
In962       O969   2.266       .  S
In962       O970   2.268       .  S
In962       O971   2.215       .  S
In962       O974   2.214       .  S
C963        O969   1.263       .  A
C963        O971   1.260       .  A
O964        C972   1.259       .  A
O965        C972   1.263       .  A
C966        O973   1.261       .  A
C966        O967   1.262       .  A
C968        O970   1.263       .  A
C968        O974   1.261       .  A
C975        C976   1.396       .  A
C976        C977   1.401       .  A
C977        C978   1.409       .  A
C977        C990   1.472       .  S
C978        C979   1.411       .  A
C978        H982   1.083       .  S
C980        H983   1.084       .  S
In984       O986   2.223       .  S
In984       O995   2.219       .  S
In984       O989   2.272       .  S
C985        O991   1.264       .  A
C985        O993   1.260       .  A
O986        C994   1.260       .  A
C988        O995   1.261       .  A
C988        O989   1.263       .  A
C990        O992   1.263       .  A
C997        C998   1.407       .  A
C997       C1002   1.415       .  A
C998       H1003   1.084       .  S
C999       C1000   1.415       .  A
C999       C1006   1.444       .  S
C1000      C1001   1.408       .  A
C1002      C1005   1.446       .  S
C1005      N1007   1.158   1_565  T
C1006      N1008   1.157       .  T
C1009      C1010   1.403       .  A
C1009      C1014   1.412       .  A
C1010      H1015   1.085       .  S
C1011      C1012   1.411       .  A
C1011      C1018   1.443       .  S
C1013      C1014   1.398       .  A
C1013      H1016   1.085   1_565  S
C1014      C1017   1.442       .  S
C1018      N1020   1.156       .  T
C1021      C1022   1.407       .  A
C1021      C1026   1.413   1_655  A
C1022      C1023   1.401       .  A
C1022      H1027   1.084       .  S
C1029      N1031   1.157       .  T
C1030      N1032   1.157       .  T
