geometry optimzed in LAMMPS
_audit_creation_date              2020-12-01 
_audit_creation_method            'lammps2cif' 
_symmetry_space_group_name_H-M    'P1' 
_symmetry_Int_Tables_number       1 
_symmetry_cell_setting            triclinic 
loop_ 
_symmetry_equiv_pos_as_xyz 
  x,y,z 
_cell_length_a                    31.20884488 
_cell_length_b                    31.419170614797817 
_cell_length_c                    87.88088433070142 
_cell_angle_alpha                 90.34132554034878 
_cell_angle_beta                  89.71092595220304 
_cell_angle_gamma                 124.06932922368979 
loop_ 
_atom_site_label 
_atom_site_type_symbol 
_atom_site_fract_x 
_atom_site_fract_y 
_atom_site_fract_z 
_atom_site_charge 
C1          C  0.82798710  0.98987573  0.11680364     0.87600
C2          C  0.79907492  0.94505081  0.12818924    -0.52600
C3          C  0.83153805  0.94113862  0.13752975     0.10500
C4          C  0.88900163  0.98267633  0.13482932     0.21500
C5          C  0.86222451  0.03823624  0.12676114    -0.53400
C6          C  0.89456714  0.03424417  0.13618529     0.10600
C7          C  0.86580756  0.98096745  0.10842421    -0.52900
C8          C  0.89815008  0.97769522  0.11791877     0.11200
H9          H  0.75730336  0.91831522  0.12853844     0.15700
H10         H  0.91405259  0.97876918  0.14274116     0.01500
H11         H  0.86060494  0.07185363  0.12649949     0.16000
H12         H  0.86677523  0.97741307  0.09614277     0.15800
C13         C  0.07604706  0.94968272  0.11488860     0.87600
C14         C  0.11055074  0.99233205  0.12657478    -0.52600
C15         C  0.08346132  0.99539405  0.13828141     0.10500
C16         C  0.02511529  0.95563422  0.13714804     0.21500
C17         C  0.04350963  0.89934247  0.12407267    -0.53400
C18         C  0.01681285  0.90283840  0.13588160     0.10600
C19         C  0.03702949  0.96192455  0.10970610    -0.52900
C20         C  0.01088560  0.96552574  0.12155465     0.11200
H21         H  0.15174631  0.02036950  0.12495797     0.15700
H22         H  0.00272004  0.95827240  0.14642325     0.01500
H23         H  0.04007528  0.86396847  0.12109488     0.16000
H24         H  0.03334769  0.97070337  0.09804374     0.15800
C25         C  0.85582287  0.98836824  0.85458618     0.87600
C26         C  0.87094692  0.03474327  0.84444813    -0.52600
C27         C  0.91122425  0.04858962  0.83489276     0.10500
C28         C  0.93249255  0.01514693  0.83632405     0.21500
C29         C  0.84499346  0.94541024  0.84325178    -0.53400
C30         C  0.88582726  0.95986531  0.83366729     0.10600
C31         C  0.90585817  0.00328887  0.86284858    -0.52900
C32         C  0.94618461  0.01789966  0.85321463     0.11200
H33         H  0.85077151  0.05384235  0.84452813     0.15700
H34         H  0.96513460  0.02639455  0.82850476     0.01500
H35         H  0.80822270  0.90841112  0.84246900     0.16000
H36         H  0.90920392  0.00284748  0.87513439     0.15800
C37         C  0.17153370  0.09089068  0.85175863     0.87600
C38         C  0.14648727  0.03632866  0.84517457    -0.52600
C39         C  0.10737520  0.02282604  0.83529897     0.10500
C40         C  0.09720265  0.06438892  0.83285907     0.21500
C41         C  0.18852532  0.12692675  0.83781000    -0.53400
C42         C  0.14869172  0.11246133  0.82792890     0.10600
C43         C  0.12610393  0.09074561  0.85888154    -0.52900
C44         C  0.08729102  0.07682468  0.84875692     0.11200
H45         H  0.15634645  0.00980773  0.84876867     0.15700
H46         H  0.06516313  0.05222525  0.82481851     0.01500
H47         H  0.22754204  0.16040773  0.83604336     0.16000
H48         H  0.12498870  0.10103831  0.87062549     0.15800
N49         N  0.64387416  0.91869245  0.01676376    -0.26200
N50         N  0.59289738  0.89105703  0.01589017    -0.34000
C51         C  0.57840397  0.88075166  0.00127955     0.02200
C52         C  0.62214475  0.90296900  0.99226779     0.08200
C53         C  0.66328764  0.92650818  0.00247380    -0.04900
H54         H  0.53885039  0.86203743  0.99747064     0.08900
H55         H  0.70400486  0.95062289  0.99966839     0.10100
Cu56       Cu  0.54509617  0.88174329  0.03359833     0.44200
Cu57       Cu  0.68053732  0.94930932  0.03778956     0.42000
Cu58       Cu  0.59945360  0.96667158  0.06508845     0.43900
N59         N  0.50439351  0.90263668  0.04642546    -0.33600
N60         N  0.52455264  0.93648492  0.05764465    -0.27800
C61         C  0.49068553  0.94840297  0.06170044    -0.03900
C62         C  0.44765170  0.92091916  0.05237215     0.08300
C63         C  0.45776696  0.89231176  0.04292151     0.02100
H64         H  0.49812214  0.97702970  0.07012074     0.09700
H65         H  0.43450178  0.86824797  0.03348173     0.08800
N66         N  0.67059234  0.97904680  0.07022905    -0.35000
N67         N  0.69922045  0.97203686  0.06068866    -0.27200
C68         C  0.73942223  0.97801697  0.06845751    -0.02400
C69         C  0.73585617  0.98938606  0.08345234     0.06200
C70         C  0.69190182  0.98968907  0.08419144     0.04300
H71         H  0.76788706  0.97232207  0.06368280     0.09400
H72         H  0.67511542  0.99470355  0.09427686     0.08200
N73         N  0.64557994  0.92601670  0.95118845    -0.26200
N74         N  0.59604966  0.90837182  0.95223163    -0.34000
C75         C  0.58068141  0.89654110  0.96676397     0.02200
C76         C  0.62250266  0.90751860  0.97549778     0.08200
C77         C  0.66327259  0.92631290  0.96524221    -0.04900
H78         H  0.54224612  0.88308308  0.97075958     0.08900
H79         H  0.70281174  0.93976466  0.96782493     0.10100
Cu80       Cu  0.55317849  0.90854541  0.93439860     0.44200
Cu81       Cu  0.68353158  0.94858478  0.93011289     0.42000
Cu82       Cu  0.61519272  0.96968186  0.89933061     0.43900
N83         N  0.52073927  0.93059626  0.91848957    -0.33600
N84         N  0.54416785  0.95658212  0.90596734    -0.27800
C85         C  0.51532452  0.97168263  0.89961253    -0.03900
C86         C  0.47167084  0.95374896  0.90861603     0.08300
C87         C  0.47660279  0.92776505  0.92036809     0.02100
H88         H  0.52582632  0.99478218  0.88944879     0.09700
H89         H  0.45146124  0.91054074  0.93014896     0.08800
N90         N  0.68167924  0.96926746  0.89620521    -0.35000
N91         N  0.70584795  0.96168914  0.90714554    -0.27200
C92         C  0.74524869  0.96130962  0.90093292    -0.02400
C93         C  0.74584929  0.96877531  0.88542615     0.06200
C94         C  0.70527664  0.97388442  0.88281761     0.04300
H95         H  0.77113490  0.95533246  0.90723695     0.09400
H96         H  0.69327393  0.97980195  0.87195017     0.08200
N97         N  0.22448098  0.95187631  0.01088278    -0.26200
N98         N  0.24735288  0.92748474  0.00870104    -0.34000
C99         C  0.25265706  0.92305735  0.99376129     0.02200
C100        C  0.23281122  0.94628162  0.98592168     0.08200
C101        C  0.21508356  0.96427127  0.99714373    -0.04900
H102        H  0.27285926  0.90712757  0.98901655     0.08900
H103        H  0.19821979  0.98601689  0.99546448     0.10100
Cu104      Cu  0.28164977  0.91165187  0.02566759     0.44200
Cu105      Cu  0.21142274  0.96711181  0.03304408     0.42000
Cu106      Cu  0.29894237  0.96768576  0.06204947     0.43900
N107        N  0.33621073  0.92087899  0.04089725    -0.33600
N108        N  0.34596410  0.94500476  0.05407339    -0.27800
C109        C  0.38723997  0.94890745  0.06049298    -0.03900
C110        C  0.40357358  0.92563414  0.05081669     0.08300
C111        C  0.37031993  0.90841586  0.03855592     0.02100
H112        H  0.40383043  0.96699085  0.07135196     0.09700
H113        H  0.37170135  0.88960559  0.02839485     0.08800
N114        N  0.23409603  0.96843237  0.06691232    -0.35000
N115        N  0.20239461  0.96750871  0.05670926    -0.27200
C116        C  0.16177539  0.96244596  0.06408204    -0.02400
C117        C  0.16833647  0.95994894  0.07952156     0.06200
C118        C  0.21445747  0.96402103  0.08092851     0.04300
H119        H  0.12915051  0.95922290  0.05857081     0.09400
H120        H  0.23166737  0.96206822  0.09133594     0.08200
N121        N  0.24962239  0.98943708  0.94638874    -0.26200
N122        N  0.26225795  0.95583448  0.94562529    -0.34000
C123        C  0.25499331  0.93376827  0.95922823     0.02200
C124        C  0.23692889  0.95430545  0.96927223     0.08200
C125        C  0.23351325  0.98942952  0.96071795    -0.04900
H126        H  0.26588349  0.90745552  0.96185732     0.08900
H127        H  0.22365221  0.01542198  0.96484606     0.10100
Cu128      Cu  0.30112227  0.95046236  0.92753835     0.44200
Cu129      Cu  0.26331284  0.03592991  0.92758999     0.42000
Cu130      Cu  0.35924652  0.04454976  0.89883768     0.43900
N131        N  0.36134388  0.96187740  0.91435313    -0.33600
N132        N  0.38622350  0.99856004  0.90412188    -0.27800
C133        C  0.42865800  0.00019795  0.89956289    -0.03900
C134        C  0.43010387  0.96280901  0.90751927     0.08300
C135        C  0.38664085  0.93942438  0.91666022     0.02100
H136        H  0.45764059  0.02821289  0.89177225     0.09700
H137        H  0.37573687  0.91025686  0.92516044     0.08800
N138        N  0.31260737  0.07256609  0.89592173    -0.35000
N139        N  0.27898783  0.06931482  0.90597964    -0.27200
C140        C  0.25106401  0.08463559  0.89930768    -0.02400
C141        C  0.26777127  0.09828678  0.88447289     0.06200
C142        C  0.30656324  0.09002043  0.88267314     0.04300
H143        H  0.21820483  0.08206500  0.90452106     0.09400
H144        H  0.32608206  0.09249767  0.87216983     0.08200
C145        C  0.96397329  0.87164928  0.78708061     0.87600
C146        C  0.01188387  0.88929199  0.79686872    -0.52600
C147        C  0.02380314  0.92830067  0.80658686     0.10500
C148        C  0.98738624  0.94651077  0.80546837     0.21500
C149        C  0.92029198  0.85870610  0.79857698    -0.53400
C150        C  0.93301634  0.89880192  0.80816624     0.10600
C151        C  0.97686363  0.92077063  0.77888915    -0.52900
C152        C  0.98878194  0.96000101  0.78858634     0.11200
H153        H  0.03513156  0.87353794  0.79587497     0.15700
H154        H  0.99790813  0.97833702  0.81345159     0.01500
H155        H  0.88338921  0.82176010  0.79907851     0.16000
H156        H  0.97712954  0.92435401  0.76659837     0.15800
C157        C  0.05052452  0.18218023  0.78572814     0.87600
C158        C  0.01545830  0.17819783  0.79891120    -0.52600
C159        C  0.01171213  0.14746003  0.81045393     0.10500
C160        C  0.04242113  0.12386811  0.80776233     0.21500
C161        C  0.10293921  0.20028271  0.79324106    -0.53400
C162        C  0.09817006  0.16880378  0.80479207     0.10600
C163        C  0.02720969  0.12600346  0.78081633    -0.52900
C164        C  0.02269860  0.09560803  0.79258916     0.11200
H165        H  0.99447616  0.19646611  0.79888381     0.15700
H166        H  0.03831003  0.09899264  0.81723387     0.01500
H167        H  0.13977832  0.23418607  0.78975837     0.16000
H168        H  0.01271491  0.11117598  0.76946662     0.15800
N169        N  0.94181113  0.26200237  0.68816346    -0.26200
N170        N  0.90992137  0.27705947  0.68869371    -0.34000
C171        C  0.89012393  0.27277747  0.67484496     0.02200
C172        C  0.91046130  0.25436243  0.66485691     0.08200
C173        C  0.94303452  0.24752613  0.67370672    -0.04900
H174        H  0.86541024  0.28564252  0.67207653     0.08900
H175        H  0.96786740  0.23583270  0.66976918     0.10100
Cu176      Cu  0.90419077  0.31533481  0.70685411     0.44200
Cu177      Cu  0.98405875  0.26867346  0.70758124     0.42000
Cu178      Cu  0.99311466  0.36074551  0.73715170     0.43900
N179        N  0.92014033  0.37614635  0.72047823    -0.33600
N180        N  0.95484453  0.39564672  0.73147401    -0.27800
C181        C  0.96076392  0.43937635  0.73656932    -0.03900
C182        C  0.92832082  0.44748454  0.72817164     0.08300
C183        C  0.90330214  0.40649795  0.71816000     0.02100
H184        H  0.98828224  0.46453476  0.74515476     0.09700
H185        H  0.87660994  0.40037600  0.70924131     0.08800
N186        N  0.01690859  0.31095400  0.74004041    -0.35000
N187        N  0.01366592  0.27832129  0.72968748    -0.27200
C188        C  0.02760108  0.24904417  0.73619996    -0.02400
C189        C  0.04028172  0.26402365  0.75122856     0.06200
C190        C  0.03293777  0.30309122  0.75328993     0.04300
H191        H  0.02590882  0.21734417  0.73062004     0.09400
H192        H  0.03621272  0.32250958  0.76386827     0.08200
N193        N  0.92329749  0.68338247  0.68824165    -0.26200
N194        N  0.90030158  0.63326160  0.68691128    -0.34000
C195        C  0.89266460  0.61999529  0.67218723     0.02200
C196        C  0.91206880  0.66379458  0.66357707     0.08200
C197        C  0.93137172  0.70364856  0.67412730    -0.04900
H198        H  0.87679915  0.58141936  0.66806111     0.08900
H199        H  0.95071806  0.74415677  0.67172376     0.10100
Cu200      Cu  0.89024384  0.58605938  0.70462086     0.44200
Cu201      Cu  0.94232297  0.71708873  0.70991396     0.42000
Cu202      Cu  0.94899952  0.63696609  0.74035470     0.43900
N203        N  0.90736832  0.54721868  0.71940853    -0.33600
N204        N  0.93258697  0.56628860  0.73234278    -0.27800
C205        C  0.94393795  0.53362182  0.73792582    -0.03900
C206        C  0.92441611  0.49223683  0.72792472     0.08300
C207        C  0.90156753  0.50246944  0.71641315     0.02100
H208        H  0.96527694  0.53980988  0.74829406     0.09700
H209        H  0.88407274  0.48026737  0.70613906     0.08800
N210        N  0.95089571  0.70412600  0.74412955    -0.35000
N211        N  0.94845802  0.73220873  0.73337282    -0.27200
C212        C  0.94777041  0.77059522  0.74003180    -0.02400
C213        C  0.94967218  0.76650488  0.75561855     0.06200
C214        C  0.95184086  0.72421930  0.75784018     0.04300
H215        H  0.94534501  0.79901692  0.73394813     0.09400
H216        H  0.95325275  0.70868785  0.76864136     0.08200
C217        C  0.97706439  0.85381477  0.52635099     0.87600
C218        C  0.92424813  0.82127880  0.51825225    -0.52600
C219        C  0.91047192  0.85049601  0.51123366     0.10500
C220        C  0.95066889  0.90835245  0.51276190     0.21500
C221        C  0.01627429  0.88962142  0.51398348    -0.53400
C222        C  0.00219502  0.91887507  0.50700499     0.10600
C223        C  0.97212299  0.88991275  0.53714135    -0.52900
C224        C  0.95848442  0.91859828  0.52980050     0.11200
H225        H  0.89895357  0.77967221  0.51887087     0.15700
H226        H  0.93899342  0.93155611  0.50706981     0.01500
H227        H  0.05316266  0.89456322  0.51198446     0.16000
H228        H  0.97982998  0.89327003  0.54928078     0.15800
C229        C  0.93514775  0.09096268  0.52443855     0.87600
C230        C  0.97744494  0.12184583  0.51229974    -0.52600
C231        C  0.98797909  0.09219072  0.50384415     0.10500
C232        C  0.95623693  0.03552474  0.50841807     0.21500
C233        C  0.88786499  0.04656741  0.51565571    -0.53400
C234        C  0.89955266  0.01744766  0.50720653     0.10600
C235        C  0.95496033  0.06443060  0.53397015    -0.52900
C236        C  0.96615217  0.03559678  0.52545763     0.11200
H237        H  0.99731520  0.16298401  0.51066595     0.15700
H238        H  0.96554421  0.01203313  0.50158286     0.01500
H239        H  0.84882181  0.03715105  0.51684439     0.16000
H240        H  0.96020989  0.06852567  0.54622764     0.15800
N241        N  0.90814700  0.24145363  0.62319845    -0.26200
N242        N  0.88425503  0.26489391  0.62526654    -0.34000
C243        C  0.88068300  0.27138963  0.64018915     0.02200
C244        C  0.90356025  0.25132122  0.64813742     0.08200
C245        C  0.92073056  0.23254119  0.63699047    -0.04900
H246        H  0.86472200  0.29163184  0.64485011     0.08900
H247        H  0.94163395  0.21479953  0.63875831     0.10100
Cu248      Cu  0.86573051  0.29583111  0.60797388     0.44200
Cu249      Cu  0.92227822  0.22645464  0.60109384     0.42000
Cu250      Cu  0.91941754  0.30831088  0.57117921     0.43900
N251        N  0.87563379  0.34915293  0.59233005    -0.33600
N252        N  0.89952110  0.35742588  0.57914553    -0.27800
C253        C  0.90945685  0.40166672  0.57324478    -0.03900
C254        C  0.89055065  0.42164126  0.58328165     0.08300
C255        C  0.86912992  0.38710941  0.59514575     0.02100
H256        H  0.93078210  0.41903127  0.56283482     0.09700
H257        H  0.85378340  0.39132330  0.60568853     0.08800
N258        N  0.92433306  0.24596212  0.56692872    -0.35000
N259        N  0.92499136  0.21643906  0.57752437    -0.27200
C260        C  0.92481130  0.17793214  0.57059934    -0.02400
C261        C  0.92378036  0.18347360  0.55503280     0.06200
C262        C  0.92371165  0.22696001  0.55308564     0.04300
H263        H  0.92459732  0.14765903  0.57647961     0.09400
H264        H  0.92232837  0.24314828  0.54241232     0.08200
N265        N  0.93891505  0.68667805  0.62266931    -0.26200
N266        N  0.90592273  0.63631769  0.62322642    -0.34000
C267        C  0.89015221  0.62187640  0.63757835     0.02200
C268        C  0.91423261  0.66501803  0.64676304     0.08200
C269        C  0.94489306  0.70585828  0.63692347    -0.04900
H270        H  0.86527016  0.58227391  0.64115776     0.08900
H271        H  0.97147869  0.74584170  0.64000077     0.10100
Cu272      Cu  0.89202055  0.58739734  0.60545816     0.44200
Cu273      Cu  0.97453008  0.72131199  0.60194351     0.42000
Cu274      Cu  0.97182624  0.63090195  0.57293107     0.43900
N275        N  0.89871833  0.53903009  0.59134966    -0.33600
N276        N  0.93043112  0.55460858  0.57958476    -0.27800
C277        C  0.93080665  0.51454837  0.57415800    -0.03900
C278        C  0.89785235  0.47210852  0.58312935     0.08300
C279        C  0.87824586  0.48918415  0.59384161     0.02100
H280        H  0.95501827  0.51678604  0.56491716     0.09700
H281        H  0.85320972  0.46782331  0.60334053     0.08800
N282        N  0.99157705  0.70469929  0.56858636    -0.35000
N283        N  0.99212192  0.73648977  0.57871976    -0.27200
C284        C  0.99829176  0.77691306  0.57127652    -0.02400
C285        C  0.00183697  0.77023506  0.55588253     0.06200
C286        C  0.99730477  0.72417283  0.55454965     0.04300
H287        H  0.99636271  0.80696628  0.57658494     0.09400
H288        H  0.99425167  0.70423784  0.54410479     0.08200
C289        C  0.78627977  0.84401566  0.45827796     0.87600
C290        C  0.78691576  0.80872869  0.47038146    -0.52600
C291        C  0.82752538  0.83463935  0.48026969     0.10500
C292        C  0.86297863  0.89220798  0.47705313     0.21500
C293        C  0.78775595  0.88737962  0.46723490    -0.53400
C294        C  0.82821303  0.91257767  0.47726408     0.10600
C295        C  0.83926060  0.87035681  0.45048806    -0.52900
C296        C  0.87912372  0.89479003  0.46044335     0.11200
H297        H  0.75979583  0.76725283  0.47054927     0.15700
H298        H  0.89683111  0.91327999  0.48470359     0.01500
H299        H  0.76031888  0.89780604  0.46555420     0.16000
H300        H  0.84473845  0.86771023  0.43838066     0.15800
C301        C  0.10271595  0.06862087  0.45250806     0.87600
C302        C  0.05337010  0.02909236  0.44369353    -0.52600
C303        C  0.01208628  0.99925392  0.45293685     0.10500
C304        C  0.02336986  0.01245346  0.46984309     0.21500
C305        C  0.08741904  0.09976109  0.46199258    -0.53400
C306        C  0.04505847  0.06952174  0.47093063     0.10600
C307        C  0.11040051  0.03646215  0.46412565    -0.52900
C308        C  0.06823440  0.00711959  0.47336807     0.11200
H309        H  0.05133683  0.02497832  0.43138701     0.15700
H310        H  0.98878948  0.98884643  0.47718325     0.01500
H311        H  0.10566842  0.14085835  0.46083627     0.16000
H312        H  0.14510408  0.03644035  0.46481118     0.15800
N313        N  0.24508766  0.22814061  0.35009272    -0.26200
N314        N  0.29298593  0.26081290  0.34527846    -0.34000
C315        C  0.29205386  0.27568763  0.33109800     0.02200
C316        C  0.24125173  0.25098911  0.32650477     0.08200
C317        C  0.21219055  0.22089716  0.33882737    -0.04900
H318        H  0.32591182  0.30530460  0.32496935     0.08900
H319        H  0.17054367  0.19901821  0.33998336     0.10100
Cu320      Cu  0.35793704  0.29374024  0.35881111     0.44200
Cu321      Cu  0.22985150  0.20354636  0.37277106     0.42000
Cu322      Cu  0.34119213  0.28246975  0.39880073     0.43900
N323        N  0.41615327  0.34214606  0.37377448    -0.33600
N324        N  0.40923450  0.34045424  0.38864686    -0.27800
C325        C  0.45039047  0.38278362  0.39498468    -0.03900
C326        C  0.48483790  0.41210081  0.38347425     0.08300
C327        C  0.46199620  0.38501767  0.37021294     0.02100
H328        H  0.45374880  0.39266150  0.40693152     0.09700
H329        H  0.47549328  0.39766830  0.35871010     0.08800
N330        N  0.26997523  0.21862861  0.40532685    -0.35000
N331        N  0.23007050  0.19021449  0.39612116    -0.27200
C332        C  0.19051548  0.15229849  0.40431525    -0.02400
C333        C  0.20652733  0.15715594  0.41923405     0.06200
C334        C  0.25684798  0.19951079  0.41951621     0.04300
H335        H  0.15272635  0.12369614  0.39977368     0.09400
H336        H  0.28198584  0.21570655  0.42931984     0.08200
N337        N  0.69477504  0.70989210  0.35300872    -0.26200
N338        N  0.68482503  0.66437853  0.34925606    -0.34000
C339        C  0.68859474  0.66180459  0.33409137     0.02200
C340        C  0.70136799  0.70770100  0.32782600     0.08200
C341        C  0.70426166  0.73713797  0.34013927    -0.04900
H342        H  0.67693703  0.62699878  0.32792656     0.08900
H343        H  0.70896905  0.77394244  0.33966136     0.10100
Cu344      Cu  0.65084570  0.60226947  0.36382279     0.44200
Cu345      Cu  0.68809468  0.72863120  0.37548072     0.42000
Cu346      Cu  0.61229141  0.61811221  0.40070421     0.43900
N347        N  0.59706377  0.54138455  0.37723470    -0.33600
N348        N  0.58228520  0.54695465  0.39079162    -0.27800
C349        C  0.54226271  0.50093886  0.39564328    -0.03900
C350        C  0.53095611  0.46493100  0.38446012     0.08300
C351        C  0.56646553  0.49189027  0.37297980    -0.02700
H352        H  0.52055137  0.49497006  0.40596297     0.09700
H353        H  0.56782169  0.47733941  0.36192650     0.08800
N354        N  0.65144947  0.69369720  0.40793412    -0.35000
N355        N  0.67970269  0.73406575  0.39900485    -0.27200
C356        C  0.70508928  0.77661594  0.40780162    -0.02400
C357        C  0.69163520  0.76210513  0.42284705     0.06200
C358        C  0.65788702  0.70941080  0.42250497     0.04300
H359        H  0.73389040  0.81473882  0.40366220     0.09400
H360        H  0.64225264  0.68392043  0.43220227     0.08200
C361        C  0.84564947  0.80566357  0.18362312     0.87600
C362        C  0.81684484  0.81285436  0.17064367    -0.52600
C363        C  0.84882404  0.85545895  0.16200729     0.10500
C364        C  0.90506261  0.88616590  0.16712134     0.21500
C365        C  0.89011440  0.80551052  0.17571311    -0.53400
C366        C  0.92117200  0.84829929  0.16696025     0.10600
C367        C  0.87302628  0.85620564  0.19269728    -0.52900
C368        C  0.90362884  0.89823729  0.18396757     0.11200
H369        H  0.77578323  0.78657665  0.16838663     0.15700
H370        H  0.93039816  0.92076492  0.16011660     0.01500
H371        H  0.89760922  0.77606240  0.17743931     0.16000
H372        H  0.86833848  0.85859717  0.20486951     0.15800
C373        C  0.05631823  0.12440471  0.18391827     0.87600
C374        C  0.00815038  0.07492759  0.19021379    -0.52600
C375        C  0.98364194  0.03735378  0.17950572     0.10500
C376        C  0.00954071  0.05174830  0.16392600     0.21500
C377        C  0.09038927  0.10743494  0.17732882    -0.53400
C378        C  0.06544098  0.06904458  0.16683246     0.10600
C379        C  0.03644168  0.13881345  0.17005608    -0.52900
C380        C  0.01141762  0.09972250  0.15960752     0.11200
H381        H  0.99414378  0.07045169  0.20182357     0.15700
H382        H  0.98935617  0.02011067  0.15556412     0.01500
H383        H  0.12889336  0.12145637  0.18147087     0.16000
H384        H  0.03955716  0.17485846  0.16900803     0.15800
N385        N  0.19985898  0.26548284  0.28929336    -0.26200
N386        N  0.23295893  0.31378102  0.29349169    -0.34000
C387        C  0.24873001  0.31516228  0.30774285     0.02200
C388        C  0.22432351  0.26552910  0.31303017     0.08200
C389        C  0.19333759  0.23469306  0.30104034    -0.04900
H390        H  0.27940448  0.34967040  0.31336207     0.08900
H391        H  0.17187973  0.19323652  0.30038268     0.10100
Cu392      Cu  0.26758529  0.37578611  0.27896277     0.44200
Cu393      Cu  0.17510661  0.24674174  0.26664057     0.42000
Cu394      Cu  0.26307615  0.35184518  0.23976067     0.43900
N395        N  0.32105779  0.42981424  0.26391169    -0.33600
N396        N  0.32179035  0.41996823  0.24933492    -0.27800
C397        C  0.36675881  0.45806342  0.24317811    -0.03900
C398        C  0.39543539  0.49352330  0.25453165     0.08300
C399        C  0.36511548  0.47452722  0.26747210     0.02100
H400        H  0.37874191  0.45843388  0.23158127     0.09700
H401        H  0.37610033  0.48964253  0.27891602     0.08800
N402        N  0.19653673  0.28286212  0.23364180    -0.35000
N403        N  0.16454162  0.24513734  0.24301844    -0.27200
C404        C  0.12570696  0.20659721  0.23474373    -0.02400
C405        C  0.13393141  0.22128779  0.21963087     0.06200
C406        C  0.17902316  0.26946878  0.21931910     0.04300
H407        H  0.09443711  0.17032251  0.23935096     0.09400
H408        H  0.19832357  0.29290199  0.20939244     0.08200
N409        N  0.69516453  0.70685607  0.28660223    -0.26200
N410        N  0.64789037  0.69255648  0.29042441    -0.34000
C411        C  0.64515822  0.69638641  0.30558395     0.02200
C412        C  0.69296218  0.71399839  0.31176398     0.08200
C413        C  0.72362488  0.71951840  0.29941008    -0.04900
H414        H  0.60956772  0.68193215  0.31180987     0.08900
H415        H  0.76239883  0.72822035  0.29983628     0.10100
Cu416      Cu  0.58595165  0.65487756  0.27570872     0.44200
Cu417      Cu  0.71466475  0.70130502  0.26411367     0.42000
Cu418      Cu  0.60563304  0.61889291  0.23851170     0.43900
N419        N  0.52662818  0.60144422  0.26180621    -0.33600
N420        N  0.53313804  0.58692218  0.24832848    -0.27800
C421        C  0.48682768  0.54780320  0.24315134    -0.03900
C422        C  0.44980897  0.53721494  0.25401286     0.08300
C423        C  0.47643658  0.57195390  0.26563452     0.02100
H424        H  0.48104056  0.52695353  0.23268198     0.09700
H425        H  0.46098583  0.57406281  0.27644569     0.08800
N426        N  0.68246951  0.66307183  0.23151495    -0.35000
N427        N  0.72192099  0.69336109  0.24065953    -0.27200
C428        C  0.76516575  0.72090952  0.23215098    -0.02400
C429        C  0.75231571  0.70704369  0.21703797     0.06200
C430        C  0.69963917  0.67054173  0.21704280     0.04300
H431        H  0.80257278  0.75108795  0.23653454     0.09400
H432        H  0.67498328  0.65319498  0.20717749     0.08200
C433        C  0.08265076  0.16372807  0.19580166    -0.12200
C434        C  0.10497711  0.19101816  0.20662433    -0.13700
C435        C  0.93429785  0.95115638  0.18982647    -0.15300
C436        C  0.93523780  0.98729215  0.18165101    -0.30500
H437        H  0.96342075  0.96128456  0.19843905     0.13700
H438        H  0.90665445  0.97544555  0.17271051     0.14300
C439        C  0.81177787  0.76198745  0.19377801    -0.12200
C440        C  0.78445421  0.73377268  0.20394920    -0.13700
C441        C  0.17574858  0.12654698  0.43199885    -0.12200
C442        C  0.14604944  0.10061746  0.44205415    -0.13700
C443        C  0.93322288  0.91692805  0.45653498    -0.15300
C444        C  0.95974189  0.95876461  0.44782849    -0.30500
H445        H  0.95425948  0.90910296  0.46462057     0.13700
H446        H  0.94010286  0.96871181  0.43990581     0.14300
C447        C  0.74475827  0.81642735  0.44696044    -0.12200
C448        C  0.71776919  0.79266845  0.43617368    -0.13700
C449        C  0.02791968  0.11082027  0.49180620    -0.15300
C450        C  0.01375971  0.08522858  0.47855850    -0.30500
H451        H  0.06829250  0.13357900  0.49518600     0.13700
H452        H  0.97254342  0.06057278  0.47612022     0.14300
C453        C  0.86184496  0.96614168  0.50043909    -0.15300
C454        C  0.84215513  0.95912492  0.48633255    -0.30500
H455        H  0.86118549  0.93462215  0.50565190     0.13700
H456        H  0.84288346  0.99016105  0.48068341     0.14300
C457        C  0.92523790  0.12311201  0.53410596    -0.12200
C458        C  0.92291519  0.15057042  0.54331158    -0.13700
C459        C  0.85871330  0.83170741  0.50506820    -0.15300
C460        C  0.84451672  0.81098633  0.49111968    -0.30500
H461        H  0.84257389  0.85253496  0.50920688     0.13700
H462        H  0.86153917  0.79183045  0.48626535     0.14300
C463        C  0.95437041  0.95910023  0.53664556    -0.15300
C464        C  0.98689344  0.00697708  0.53142259    -0.30500
H465        H  0.91636868  0.94744552  0.54072792     0.13700
H466        H  0.02283485  0.01643873  0.52619470     0.14300
C467        C  0.03596123  0.96587634  0.49783780    -0.15300
C468        C  0.06153371  0.96948407  0.48504033    -0.30500
H469        H  0.03061599  0.99658168  0.50013106     0.13700
H470        H  0.06830928  0.94018495  0.48200223     0.14300
C471        C  0.99106132  0.82317409  0.53484392    -0.12200
C472        C  0.99826951  0.79885581  0.54381209    -0.13700
C473        C  0.05313386  0.21450794  0.77316061    -0.12200
C474        C  0.04959009  0.23818166  0.76298617    -0.13700
C475        C  0.00524161  0.01216382  0.78361621    -0.15300
C476        C  0.99351544  0.03922959  0.79240444    -0.30500
H477        H  0.03102503  0.02980379  0.77392145     0.13700
H478        H  0.96756931  0.02048168  0.80194320     0.14300
C479        C  0.94977551  0.79982591  0.76709887    -0.12200
C480        C  0.95288632  0.83013862  0.77638606    -0.13700
C481        C  0.14065793  0.17548265  0.81435443    -0.15300
C482        C  0.15075989  0.13908927  0.81379423    -0.30500
H483        H  0.14785523  0.19655165  0.82492584     0.13700
H484        H  0.13873129  0.11526304  0.80361495     0.14300
C485        C  0.21244173  0.10343556  0.86278902    -0.12200
C486        C  0.24054531  0.10497249  0.87251834    -0.13700
C487        C  0.07155074  0.95670951  0.81574120    -0.15300
C488        C  0.06914254  0.97027117  0.83000242    -0.30500
H489        H  0.10829986  0.97638882  0.80972966     0.13700
H490        H  0.03149013  0.95125273  0.83550181     0.14300
C491        C  0.03993489  0.07499434  0.85175569    -0.15300
C492        C  0.99841276  0.03373012  0.85815019    -0.30500
H493        H  0.03435255  0.09971530  0.84470484     0.13700
H494        H  0.00237222  0.00719369  0.86485677     0.14300
C495        C  0.92974724  0.08762888  0.82279606    -0.15300
C496        C  0.97707140  0.13122454  0.82378112    -0.30500
H497        H  0.91283910  0.07338687  0.81160644     0.13700
H498        H  0.99576895  0.14252241  0.83483299     0.14300
C499        C  0.88486640  0.93063566  0.82012110    -0.15300
C500        C  0.90058709  0.89853283  0.82074214    -0.30500
H501        H  0.88651771  0.94739360  0.80918319     0.13700
H502        H  0.90294696  0.88428610  0.83171694     0.14300
C503        C  0.81321764  0.97560712  0.86519615    -0.12200
C504        C  0.78152887  0.97096226  0.87431408    -0.13700
C505        C  0.10347754  0.04155359  0.14801209    -0.15300
C506        C  0.08289905  0.03616385  0.16187793    -0.30500
H507        H  0.12327842  0.07862944  0.14238804     0.13700
H508        H  0.06224185  0.99835367  0.16708002     0.14300
C509        C  0.97141710  0.86428009  0.15995927    -0.15300
C510        C  0.97529986  0.85871668  0.14491112    -0.30500
H511        H  0.00510287  0.89619400  0.16567378     0.13700
H512        H  0.94176269  0.82849549  0.13871802     0.14300
C513        C  0.10612909  0.94840721  0.10212909    -0.12200
C514        C  0.13348592  0.95237080  0.09167508    -0.13700
C515        C  0.83474150  0.87156824  0.14819807    -0.15300
C516        C  0.81508030  0.90018038  0.14899470    -0.30500
H517        H  0.85571536  0.87419221  0.13793978     0.13700
H518        H  0.79689940  0.90136657  0.15940901     0.14300
C519        C  0.98116322  0.09747902  0.14631939    -0.15300
C520        C  0.92951276  0.07299762  0.14769955    -0.30500
H521        H  0.99681172  0.09783289  0.13521978     0.13700
H522        H  0.91312256  0.06853315  0.15898257     0.14300
C523        C  0.98047985  0.98791226  0.12076190    -0.15300
C524        C  0.93671264  0.96731439  0.11282713    -0.30500
H525        H  0.98965582  0.01679050  0.12931561     0.13700
H526        H  0.92657804  0.93863691  0.10406572     0.14300
C527        C  0.79381331  0.99315721  0.10606820    -0.12200
C528        C  0.76720782  0.99286825  0.09604834    -0.13700
loop_ 
_geom_bond_atom_site_label_1 
_geom_bond_atom_site_label_2 
_geom_bond_distance 
_geom_bond_site_symmetry_2 
_ccdc_geom_bond_type 
C1            C2   1.544       .  S
C1            C7   1.540       .  S
C1            C5   1.546   1_565  S
C1          C527   1.474       .  S
C2            H9   1.086       .  S
C2            C3   1.365       .  D
C3            C4   1.534       .  S
C3          C516   1.485       .  S
C4            C8   1.535       .  S
C4            C6   1.534   1_565  S
C4           H10   1.106       .  S
C5           H11   1.086       .  S
C5            C6   1.368       .  D
C6          C520   1.485       .  S
C7           H12   1.086       .  S
C7            C8   1.361       .  D
C8          C524   1.479       .  S
C13          C14   1.545       .  S
C13          C19   1.540       .  S
C13          C17   1.547       .  S
C13         C513   1.474       .  S
C14          H21   1.086   1_565  S
C14          C15   1.365       .  D
C15          C16   1.529       .  S
C15         C505   1.483   1_565  S
C16          C20   1.529       .  S
C16          C18   1.532       .  S
C16          H22   1.104       .  S
C17          H23   1.086       .  S
C17          C18   1.370       .  D
C18         C510   1.490   1_455  S
C19          H24   1.086       .  S
C19          C20   1.362       .  D
C20         C523   1.466   1_455  S
C25          C26   1.543   1_565  S
C25          C31   1.540   1_565  S
C25          C29   1.551       .  S
C25         C503   1.481       .  S
C26          H33   1.086       .  S
C26          C27   1.362       .  D
C27          C28   1.531       .  S
C27         C495   1.478       .  S
C28          C32   1.535       .  S
C28          C30   1.535   1_545  S
C28          H34   1.108       .  S
C29          H35   1.085       .  S
C29          C30   1.373       .  D
C30         C499   1.489       .  S
C31          H36   1.086       .  S
C31          C32   1.363       .  D
C32         C492   1.479       .  S
C37          C38   1.541       .  S
C37          C43   1.545       .  S
C37          C41   1.550       .  S
C37         C485   1.473       .  S
C38          H45   1.086       .  S
C38          C39   1.360       .  D
C39          C40   1.523       .  S
C39         C488   1.468   1_545  S
C40          C44   1.525       .  S
C40          C42   1.527       .  S
C40          H46   1.105       .  S
C41          H47   1.086       .  S
C41          C42   1.371       .  D
C42         C482   1.483       .  S
C43          H48   1.086       .  S
C43          C44   1.365       .  D
C44         C491   1.469       .  S
N49          N50   1.320       .  A
N49          C53   1.354       .  A
N49         Cu57   2.101       .  S
N50          C51   1.340       .  A
N50         Cu56   2.056       .  S
C51          C52   1.381   1_554  A
C51          H54   1.082   1_554  S
C52          C53   1.393   1_556  A
C52          C76   1.481       .  S
C53          H55   1.082   1_554  S
Cu56         N59   2.056       .  S
Cu57         N67   2.104       .  S
Cu58         N60   2.077       .  S
Cu58         N66   2.080       .  S
N59          N60   1.320       .  A
N59          C63   1.339       .  A
N60          C61   1.350       .  A
C61          C62   1.387       .  A
C61          H64   1.082       .  S
C62          C63   1.380       .  A
C62         C110   1.471       .  S
C63          H65   1.082       .  S
N66          N67   1.327       .  A
N66          C70   1.347       .  A
N67          C68   1.349       .  A
C68          C69   1.383       .  A
C68          H71   1.082       .  S
C69          C70   1.378       .  A
C69         C528   1.444       .  S
C70          H72   1.082       .  S
N73          N74   1.321       .  A
N73          C77   1.353       .  A
N73         Cu81   2.095       .  S
N74          C75   1.341       .  A
N74         Cu80   2.068       .  S
C75          C76   1.384       .  A
C75          H78   1.082       .  S
C76          C77   1.390       .  A
C77          H79   1.082       .  S
Cu80         N83   2.067       .  S
Cu81         N91   2.098       .  S
Cu82         N84   2.095       .  S
Cu82         N90   2.099       .  S
N83          N84   1.321       .  A
N83          C87   1.339       .  A
N84          C85   1.354       .  A
C85          C86   1.391       .  A
C85          H88   1.082       .  S
C86          C87   1.382       .  A
C86         C134   1.479       .  S
C87          H89   1.082       .  S
N90          N91   1.327       .  A
N90          C94   1.350       .  A
N91          C92   1.349       .  A
C92          C93   1.382       .  A
C92          H95   1.082       .  S
C93          C94   1.383       .  A
C93         C504   1.450       .  S
C94          H96   1.082       .  S
N97          N98   1.320       .  A
N97         C101   1.354   1_554  A
N97        Cu105   2.095       .  S
N98          C99   1.339   1_554  A
N98        Cu104   2.059       .  S
C99         C100   1.381       .  A
C99         H102   1.082       .  S
C100        C101   1.392       .  A
C100        C124   1.479       .  S
C101        H103   1.082       .  S
Cu104       N107   2.059       .  S
Cu105       N115   2.098       .  S
Cu106       N108   2.076       .  S
Cu106       N114   2.079       .  S
N107        N108   1.320       .  A
N107        C111   1.339       .  A
N108        C109   1.350       .  A
C109        C110   1.387       .  A
C109        H112   1.082       .  S
C110        C111   1.381       .  A
C111        H113   1.082       .  S
N114        N115   1.327       .  A
N114        C118   1.346       .  A
N115        C116   1.349       .  A
C116        C117   1.382       .  A
C116        H119   1.082       .  S
C117        C118   1.378       .  A
C117        C514   1.443       .  S
C118        H120   1.082       .  S
N121        N122   1.319       .  A
N121        C125   1.354       .  A
N121       Cu129   2.090   1_565  S
N122        C123   1.339       .  A
N122       Cu128   2.057       .  S
C123        C124   1.382       .  A
C123        H126   1.082       .  S
C124        C125   1.392       .  A
C125        H127   1.082   1_565  S
Cu128       N131   2.057       .  S
Cu129       N139   2.094       .  S
Cu130       N132   2.095   1_545  S
Cu130       N138   2.098       .  S
N131        N132   1.320       .  A
N131        C135   1.338       .  A
N132        C133   1.355   1_565  A
C133        C134   1.393   1_545  A
C133        H136   1.082       .  S
C134        C135   1.380       .  A
C135        H137   1.082       .  S
N138        N139   1.328       .  A
N138        C142   1.348       .  A
N139        C140   1.347       .  A
C140        C141   1.380       .  A
C140        H143   1.082       .  S
C141        C142   1.381       .  A
C141        C486   1.443       .  S
C142        H144   1.082       .  S
C145        C146   1.537   1_655  S
C145        C151   1.542       .  S
C145        C149   1.554       .  S
C145        C480   1.479       .  S
C146        H153   1.086       .  S
C146        C147   1.360       .  D
C147        C148   1.536   1_455  S
C147        C487   1.476       .  S
C148        C152   1.539       .  S
C148        C150   1.527       .  S
C148        H154   1.107       .  S
C149        H155   1.085       .  S
C149        C150   1.373       .  D
C150        C500   1.492       .  S
C151        H156   1.086       .  S
C151        C152   1.364       .  D
C152        C475   1.484   1_665  S
C157        C158   1.546       .  S
C157        C163   1.545       .  S
C157        C161   1.549       .  S
C157        C473   1.476       .  S
C158        H165   1.086   1_455  S
C158        C159   1.364       .  D
C159        C160   1.522       .  S
C159        C496   1.476   1_455  S
C160        C164   1.525       .  S
C160        C162   1.528       .  S
C160        H166   1.102       .  S
C161        H167   1.086       .  S
C161        C162   1.370       .  D
C162        C481   1.485       .  S
C163        H168   1.086       .  S
C163        C164   1.365       .  D
C164        C476   1.470   1_455  S
N169        N170   1.320       .  A
N169        C173   1.354       .  A
N169       Cu177   2.098       .  S
N170        C171   1.339       .  A
N170       Cu176   2.059       .  S
C171        C172   1.381       .  A
C171        H174   1.082       .  S
C172        C173   1.392       .  A
C172        C244   1.481       .  S
C173        H175   1.082       .  S
Cu176       N179   2.060       .  S
Cu177       N187   2.102   1_655  S
Cu178       N180   2.088       .  S
Cu178       N186   2.091   1_655  S
N179        N180   1.320       .  A
N179        C183   1.339       .  A
N180        C181   1.353       .  A
C181        C182   1.390       .  A
C181        H184   1.082       .  S
C182        C183   1.382       .  A
C182        C206   1.478       .  S
C183        H185   1.082       .  S
N186        N187   1.328       .  A
N186        C190   1.347       .  A
N187        C188   1.349       .  A
C188        C189   1.383       .  A
C188        H191   1.082       .  S
C189        C190   1.380       .  A
C189        C474   1.445       .  S
C190        H192   1.082       .  S
N193        N194   1.319       .  A
N193        C197   1.354       .  A
N193       Cu201   2.094       .  S
N194        C195   1.338       .  A
N194       Cu200   2.055       .  S
C195        C196   1.381       .  A
C195        H198   1.082       .  S
C196        C197   1.392       .  A
C196        C268   1.479       .  S
C197        H199   1.082       .  S
Cu200       N203   2.054       .  S
Cu201       N211   2.098       .  S
Cu202       N204   2.098       .  S
Cu202       N210   2.102       .  S
N203        N204   1.320       .  A
N203        C207   1.338       .  A
N204        C205   1.355       .  A
C205        C206   1.392       .  A
C205        H208   1.082       .  S
C206        C207   1.380       .  A
C207        H209   1.082       .  S
N210        N211   1.328       .  A
N210        C214   1.350       .  A
N211        C212   1.348       .  A
C212        C213   1.381       .  A
C212        H215   1.082       .  S
C213        C214   1.383       .  A
C213        C479   1.448       .  S
C214        H216   1.082       .  S
C217        C218   1.544       .  S
C217        C223   1.546       .  S
C217        C221   1.550   1_655  S
C217        C471   1.469       .  S
C218        H225   1.086       .  S
C218        C219   1.364       .  D
C219        C220   1.530       .  S
C219        C459   1.479       .  S
C220        C224   1.522       .  S
C220        C222   1.533   1_655  S
C220        H226   1.104       .  S
C221        H227   1.086       .  S
C221        C222   1.370       .  D
C222        C467   1.484       .  S
C223        H228   1.086       .  S
C223        C224   1.360       .  D
C224        C463   1.473       .  S
C229        C230   1.544       .  S
C229        C235   1.539       .  S
C229        C233   1.553       .  S
C229        C457   1.475       .  S
C230        H237   1.086       .  S
C230        C231   1.364       .  D
C231        C232   1.530       .  S
C231        C449   1.481   1_655  S
C232        C236   1.530       .  S
C232        C234   1.529       .  S
C232        H238   1.106       .  S
C233        H239   1.086       .  S
C233        C234   1.373       .  D
C234        C453   1.486   1_545  S
C235        H240   1.086       .  S
C235        C236   1.359       .  D
C236        C464   1.471       .  S
N241        N242   1.320       .  A
N241        C245   1.354       .  A
N241       Cu249   2.098       .  S
N242        C243   1.340       .  A
N242       Cu248   2.060       .  S
C243        C244   1.382       .  A
C243        H246   1.082       .  S
C244        C245   1.392       .  A
C245        H247   1.082       .  S
Cu248       N251   2.058       .  S
Cu249       N259   2.102       .  S
Cu250       N252   2.077       .  S
Cu250       N258   2.080       .  S
N251        N252   1.320       .  A
N251        C255   1.339       .  A
N252        C253   1.350       .  A
C253        C254   1.387       .  A
C253        H256   1.082       .  S
C254        C255   1.380       .  A
C254        C278   1.470       .  S
C255        H257   1.082       .  S
N258        N259   1.327       .  A
N258        C262   1.347       .  A
N259        C260   1.348       .  A
C260        C261   1.383       .  A
C260        H263   1.082       .  S
C261        C262   1.379       .  A
C261        C458   1.445       .  S
C262        H264   1.082       .  S
N265        N266   1.320       .  A
N265        C269   1.354       .  A
N265       Cu273   2.094       .  S
N266        C267   1.338       .  A
N266       Cu272   2.054       .  S
C267        C268   1.380       .  A
C267        H270   1.082       .  S
C268        C269   1.393       .  A
C269        H271   1.082       .  S
Cu272       N275   2.055       .  S
Cu273       N283   2.098       .  S
Cu274       N276   2.073       .  S
Cu274       N282   2.076       .  S
N275        N276   1.319       .  A
N275        C279   1.338       .  A
N276        C277   1.349       .  A
C277        C278   1.388       .  A
C277        H280   1.082       .  S
C278        C279   1.380       .  A
C279        H281   1.082       .  S
N282        N283   1.327       .  A
N282        C286   1.346       .  A
N283        C284   1.346       .  A
C284        C285   1.381   1_655  A
C284        H287   1.082       .  S
C285        C286   1.377   1_455  A
C285        C472   1.439   1_455  S
C286        H288   1.082       .  S
C289        C290   1.549       .  S
C289        C295   1.533       .  S
C289        C293   1.548       .  S
C289        C447   1.471       .  S
C290        H297   1.086       .  S
C290        C291   1.368       .  D
C291        C292   1.529       .  S
C291        C460   1.482       .  S
C292        C296   1.529       .  S
C292        C294   1.538       .  S
C292        H298   1.107       .  S
C293        H299   1.086       .  S
C293        C294   1.371       .  D
C294        C454   1.497       .  S
C295        H300   1.087       .  S
C295        C296   1.355       .  D
C296        C443   1.461       .  S
C301        C302   1.540       .  S
C301        C307   1.551       .  S
C301        C305   1.546       .  S
C301        C442   1.469       .  S
C302        H309   1.086       .  S
C302        C303   1.358   1_545  D
C303        C304   1.529   1_565  S
C303        C444   1.470   1_455  S
C304        C308   1.534       .  S
C304        C306   1.524       .  S
C304        H310   1.110   1_445  S
C305        H311   1.086       .  S
C305        C306   1.363       .  D
C306        C450   1.475       .  S
C307        H312   1.085       .  S
C307        C308   1.371       .  D
C308        C468   1.493   1_545  S
N313        N314   1.322       .  A
N313        C317   1.353       .  A
N313       Cu321   2.096       .  S
N314        C315   1.340       .  A
N314       Cu320   2.062       .  S
C315        C316   1.380       .  A
C315        H318   1.082       .  S
C316        C317   1.390       .  A
C316        C388   1.474       .  S
C317        H319   1.082       .  S
Cu320       N323   2.061       .  S
Cu321       N331   2.098       .  S
Cu322       N324   2.071       .  S
Cu322       N330   2.073       .  S
N323        N324   1.320       .  A
N323        C327   1.342       .  A
N324        C325   1.347       .  A
C325        C326   1.385       .  A
C325        H328   1.082       .  S
C326        C327   1.381       .  A
C326        C350   1.469       .  S
C327        H329   1.082       .  S
N330        N331   1.326       .  A
N330        C334   1.346       .  A
N331        C332   1.347       .  A
C332        C333   1.382       .  A
C332        H335   1.082       .  S
C333        C334   1.377       .  A
C333        C441   1.440       .  S
C334        H336   1.082       .  S
N337        N338   1.322       .  A
N337        C341   1.350       .  A
N337       Cu345   2.100       .  S
N338        C339   1.343       .  A
N338       Cu344   2.066       .  S
C339        C340   1.380       .  A
C339        H342   1.082       .  S
C340        C341   1.389       .  A
C340        C412   1.472       .  S
C341        H343   1.082       .  S
Cu344       N347   2.068       .  S
Cu345       N355   2.100       .  S
Cu346       N348   2.067       .  S
Cu346       N354   2.068       .  S
N347        N348   1.321       .  A
N347        C351   1.343       .  A
N348        C349   1.346       .  A
C349        C350   1.383       .  A
C349        H352   1.082       .  S
C350        C351   1.382       .  A
C351        H353   1.082       .  S
N354        N355   1.324       .  A
N354        C358   1.345       .  A
N355        C356   1.349       .  A
C356        C357   1.385       .  A
C356        H359   1.082       .  S
C357        C358   1.377       .  A
C357        C448   1.441       .  S
C358        H360   1.083       .  S
C361        C362   1.550       .  S
C361        C367   1.536       .  S
C361        C365   1.551       .  S
C361        C439   1.475       .  S
C362        H369   1.086       .  S
C362        C363   1.368       .  D
C363        C364   1.523       .  S
C363        C515   1.478       .  S
C364        C368   1.533       .  S
C364        C366   1.529       .  S
C364        H370   1.107       .  S
C365        H371   1.085       .  S
C365        C366   1.372       .  D
C366        C509   1.484       .  S
C367        H372   1.087       .  S
C367        C368   1.355       .  D
C368        C435   1.469       .  S
C373        C374   1.538       .  S
C373        C379   1.550       .  S
C373        C377   1.541       .  S
C373        C433   1.466       .  S
C374        H381   1.086   1_455  S
C374        C375   1.359   1_455  D
C375        C376   1.523   1_655  S
C375        C436   1.459   1_545  S
C376        C380   1.525       .  S
C376        C378   1.531       .  S
C376        H382   1.104   1_455  S
C377        H383   1.086       .  S
C377        C378   1.362       .  D
C378        C506   1.475       .  S
C379        H384   1.085       .  S
C379        C380   1.371       .  D
C380        C519   1.482   1_455  S
N385        N386   1.322       .  A
N385        C389   1.354       .  A
N385       Cu393   2.097       .  S
N386        C387   1.340       .  A
N386       Cu392   2.062       .  S
C387        C388   1.379       .  A
C387        H390   1.082       .  S
C388        C389   1.390       .  A
C389        H391   1.082       .  S
Cu392       N395   2.061       .  S
Cu393       N403   2.099       .  S
Cu394       N396   2.061       .  S
Cu394       N402   2.062       .  S
N395        N396   1.319       .  A
N395        C399   1.341       .  A
N396        C397   1.346       .  A
C397        C398   1.384       .  A
C397        H400   1.082       .  S
C398        C399   1.382       .  A
C398        C422   1.468       .  S
C399        H401   1.082       .  S
N402        N403   1.326       .  A
N402        C406   1.343       .  A
N403        C404   1.348       .  A
C404        C405   1.383       .  A
C404        H407   1.082       .  S
C405        C406   1.373       .  A
C405        C434   1.436       .  S
C406        H408   1.082       .  S
N409        N410   1.321       .  A
N409        C413   1.350       .  A
N409       Cu417   2.100       .  S
N410        C411   1.344       .  A
N410       Cu416   2.062       .  S
C411        C412   1.381       .  A
C411        H414   1.082       .  S
C412        C413   1.389       .  A
C413        H415   1.082       .  S
Cu416       N419   2.063       .  S
Cu417       N427   2.101       .  S
Cu418       N420   2.078       .  S
Cu418       N426   2.079       .  S
N419        N420   1.322       .  A
N419        C423   1.341       .  A
N420        C421   1.348       .  A
C421        C422   1.385       .  A
C421        H424   1.082       .  S
C422        C423   1.380       .  A
C423        H425   1.082       .  S
N426        N427   1.325       .  A
N426        C430   1.347       .  A
N427        C428   1.349       .  A
C428        C429   1.385       .  A
C428        H431   1.082       .  S
C429        C430   1.380       .  A
C429        C440   1.446       .  S
C430        H432   1.083       .  S
C433        C434   1.205       .  T
C435        H437   1.086       .  S
C435        C436   1.334       .  D
C436        H438   1.088       .  S
C439        C440   1.211       .  T
C441        C442   1.207       .  T
C443        H445   1.088       .  S
C443        C444   1.336       .  D
C444        H446   1.086       .  S
C447        C448   1.209       .  T
C449        H451   1.086       .  S
C449        C450   1.339       .  D
C450        H452   1.089   1_455  S
C453        H455   1.083       .  S
C453        C454   1.347       .  D
C454        H456   1.086       .  S
C457        C458   1.210       .  T
C459        H461   1.086       .  S
C459        C460   1.340       .  D
C460        H462   1.086       .  S
C463        H465   1.086       .  S
C463        C464   1.340   1_565  D
C464        H466   1.086   1_655  S
C467        H469   1.085       .  S
C467        C468   1.344       .  D
C468        H470   1.085       .  S
C471        C472   1.207       .  T
C473        C474   1.211       .  T
C475        H477   1.086       .  S
C475        C476   1.338   1_455  D
C476        H478   1.082       .  S
C479        C480   1.213       .  T
C481        H483   1.086       .  S
C481        C482   1.346       .  D
C482        H484   1.087       .  S
C485        C486   1.209       .  T
C487        H489   1.086       .  S
C487        C488   1.337       .  D
C488        H490   1.087       .  S
C491        H493   1.084       .  S
C491        C492   1.340   1_455  D
C492        H494   1.086   1_655  S
C495        H497   1.087       .  S
C495        C496   1.341       .  D
C496        H498   1.086       .  S
C499        H501   1.086       .  S
C499        C500   1.348       .  D
C500        H502   1.086       .  S
C503        C504   1.214       .  T
C505        H507   1.086       .  S
C505        C506   1.341       .  D
C506        H508   1.087   1_545  S
C509        H511   1.087   1_655  S
C509        C510   1.347       .  D
C510        H512   1.086       .  S
C513        C514   1.209       .  T
C515        H517   1.087       .  S
C515        C516   1.344       .  D
C516        H518   1.086       .  S
C519        H521   1.086       .  S
C519        C520   1.347       .  D
C520        H522   1.087       .  S
C523        H525   1.083   1_565  S
C523        C524   1.336       .  D
C524        H526   1.086       .  S
C527        C528   1.210       .  T
