geometry optimzed in LAMMPS
_audit_creation_date              2020-11-30 
_audit_creation_method            'lammps2cif' 
_symmetry_space_group_name_H-M    'P1' 
_symmetry_Int_Tables_number       1 
_symmetry_cell_setting            triclinic 
loop_ 
_symmetry_equiv_pos_as_xyz 
  x,y,z 
_cell_length_a                    32.911419314588024 
_cell_length_b                    32.99345509234037 
_cell_length_c                    32.725145829710954 
_cell_angle_alpha                 90.02748700325667 
_cell_angle_beta                  89.99447324630617 
_cell_angle_gamma                 89.96664885759593 
loop_ 
_atom_site_label 
_atom_site_type_symbol 
_atom_site_fract_x 
_atom_site_fract_y 
_atom_site_fract_z 
_atom_site_charge 
C1          C  0.11618463  0.85002250  0.53564252     0.03880
C2          C  0.09550767  0.84304720  0.49828683     0.03880
C3          C  0.11777141  0.84998914  0.46198346     0.03880
C4          C  0.14824478  0.88153898  0.46271270     0.03880
C5          C  0.15180682  0.90426327  0.49938950     0.03880
C6          C  0.14690081  0.88151048  0.53593431     0.03880
C7          C  0.14799227  0.10731297  0.53581801     0.03880
C8          C  0.15203828  0.08468501  0.49910776     0.03880
C9          C  0.14683647  0.10736729  0.46253232     0.03880
C10         C  0.11560803  0.13840442  0.46282886     0.03880
C11         C  0.09470904  0.14501896  0.50013444     0.03880
C12         C  0.11700973  0.13838569  0.53645792     0.03880
C13         C  0.89512274  0.13535387  0.46197782     0.03880
C14         C  0.91591869  0.14305950  0.49915706     0.03880
C15         C  0.89418042  0.13677715  0.53586401     0.03880
C16         C  0.86355856  0.10539333  0.53616195     0.03880
C17         C  0.85744555  0.08313773  0.49970417     0.03880
C18         C  0.86436242  0.10381075  0.46230889     0.03880
C19         C  0.89586202  0.85148428  0.53632848     0.03880
C20         C  0.91677074  0.84466756  0.49908266     0.03880
C21         C  0.89503840  0.85160600  0.46247096     0.03880
C22         C  0.86428221  0.88307312  0.46256890     0.03880
C23         C  0.85810523  0.90438747  0.49973249     0.03880
C24         C  0.86495229  0.88274516  0.53642103     0.03880
C25         C  0.46940981  0.13765173  0.11145559     0.03880
C26         C  0.50557001  0.14395984  0.08896639     0.03880
C27         C  0.54265369  0.13718030  0.11006371     0.03880
C28         C  0.54267348  0.10622110  0.14156875     0.03880
C29         C  0.50614005  0.08383004  0.14686933     0.03880
C30         C  0.46978305  0.10672137  0.14274194     0.03880
C31         C  0.46902981  0.13751382  0.88655887     0.03880
C32         C  0.50530213  0.14402706  0.90886963     0.03880
C33         C  0.54230202  0.13724108  0.88767320     0.03880
C34         C  0.54229541  0.10611647  0.85642475     0.03880
C35         C  0.50588346  0.08352260  0.85136474     0.03880
C36         C  0.46944927  0.10631001  0.85539512     0.03880
C37         C  0.46882188  0.88081739  0.14394101     0.03880
C38         C  0.50526812  0.90348118  0.14847694     0.03880
C39         C  0.54153736  0.88055585  0.14388989     0.03880
C40         C  0.54147304  0.84953841  0.11265741     0.03880
C41         C  0.50515535  0.84504113  0.08965575     0.03880
C42         C  0.46878495  0.84967403  0.11262293     0.03880
C43         C  0.46934865  0.88037202  0.85372545     0.03880
C44         C  0.50569394  0.90316875  0.84934960     0.03880
C45         C  0.54203291  0.88034121  0.85389955     0.03880
C46         C  0.54200075  0.84917662  0.88507020     0.03880
C47         C  0.50556889  0.84452567  0.90791519     0.03880
C48         C  0.46928347  0.84920906  0.88484962     0.03880
C49         C  0.11869431  0.53003941  0.85690885     0.03880
C50         C  0.09600967  0.49366231  0.85234859     0.03880
C51         C  0.11873863  0.45729247  0.85704386     0.03880
C52         C  0.14995821  0.45730302  0.88814093     0.03880
C53         C  0.15675638  0.49380926  0.90960897     0.03880
C54         C  0.14993294  0.53035172  0.88809837     0.03880
C55         C  0.14984304  0.45706074  0.11101034     0.03880
C56         C  0.15685971  0.49326110  0.08901335     0.03880
C57         C  0.15002944  0.53014551  0.10993557     0.03880
C58         C  0.11864147  0.53042197  0.14099323     0.03880
C59         C  0.09582408  0.49414615  0.14597313     0.03880
C60         C  0.11848469  0.45769842  0.14202623     0.03880
C61         C  0.89220693  0.53014118  0.14273238     0.03880
C62         C  0.91496544  0.49374096  0.14650089     0.03880
C63         C  0.89228958  0.45744149  0.14119963     0.03880
C64         C  0.86105109  0.45775353  0.11002965     0.03880
C65         C  0.85411350  0.49481682  0.08926968     0.03880
C66         C  0.86086491  0.53083976  0.11173792     0.03880
C67         C  0.89241655  0.53057846  0.85653250     0.03880
C68         C  0.91517839  0.49421837  0.85197922     0.03880
C69         C  0.89255840  0.45785284  0.85680823     0.03880
C70         C  0.86145831  0.45761885  0.88813599     0.03880
C71         C  0.85464917  0.49436921  0.90953338     0.03880
C72         C  0.86121713  0.53067235  0.88761876     0.03880
C73         C  0.14297184  0.93237963  0.71536020     0.44050
N74         N  0.20255517  0.92941991  0.73962975     0.02940
C75         C  0.30249783  0.08622367  0.82193971    -0.04940
H76         H  0.19041250  0.11232657  0.68708915     0.08430
C77         C  0.26923411  0.03934884  0.61280567    -0.05290
Co78       Co  0.21721255  0.00067053  0.79104093     0.74180
N79         N  0.20996413  0.07099332  0.73493409    -0.24470
Co80       Co  0.27273427  0.07097835  0.73367624     0.74070
C81         C  0.24450041  0.07718231  0.61177687     0.44150
N82         N  0.28103274  0.94451436  0.65467366     0.02550
N83         N  0.27165572  0.06882157  0.67113280     0.02660
N84         N  0.26668777  0.03954962  0.85610675    -0.45320
H85         H  0.12150982  0.97890059  0.76163519     0.08420
N86         N  0.18953916  0.04470164  0.75721847     0.02940
N87         N  0.33483102  0.06863680  0.73145492     0.02680
C88         C  0.39449302  0.07660108  0.75754848     0.44290
N89         N  0.26411552  0.91705999  0.67834362    -0.23930
C90         C  0.25778209  0.95647401  0.86166258    -0.04850
N91         N  0.17843685  0.91291615  0.71224093    -0.45030
N92         N  0.35766447  0.09299333  0.75372846    -0.45250
C93         C  0.29197081  0.92962915  0.86258791     0.44060
N94         N  0.25382197  0.04291808  0.81820474     0.02930
N95         N  0.32630436  0.91645391  0.73887262    -0.23950
N96         N  0.18399603  0.95781328  0.76083830    -0.24440
N97         N  0.34949595  0.94388537  0.72132545     0.02570
H98         H  0.33684406  0.86655461  0.77986139     0.08460
H99         H  0.41543176  0.01525756  0.73018515     0.08500
N100        N  0.27497111  0.06951128  0.79696595    -0.24490
N101        N  0.28545001  0.03688765  0.65108752    -0.24100
N102        N  0.26739848  0.92812229  0.80291812     0.02940
C103        C  0.14642878  0.06789003  0.71581499     0.44330
C104        C  0.24149106  0.89146550  0.65644660    -0.05350
N105        N  0.35398269  0.03629535  0.71754564    -0.24100
H106        H  0.27207876  0.01656100  0.58924789     0.08480
N107        N  0.15089510  0.04304427  0.74734950    -0.45320
H108        H  0.22269769  0.86749811  0.66871971     0.08470
C109        C  0.38922571  0.90617184  0.75910179     0.44170
C110        C  0.14477904  0.95887090  0.75010230    -0.04850
Co111      Co  0.26484426  0.92177423  0.74023055     0.73820
N112        N  0.26684876  0.94076622  0.61640122    -0.45040
C113        C  0.29932793  0.06304343  0.85902326     0.44430
N114        N  0.29469589  0.91070436  0.82656036    -0.45030
Co115      Co  0.31931219  0.99042599  0.68430192     0.73890
C116        C  0.39238364  0.03840288  0.73319200    -0.05360
C117        C  0.18387938  0.08938037  0.70954501    -0.04920
N118        N  0.24688793  0.95635482  0.82238820    -0.24450
N119        N  0.24849812  0.09307857  0.64904331    -0.45210
H120        H  0.32442466  0.10936233  0.81484742     0.08440
C121        C  0.34859927  0.89055442  0.76072216    -0.05330
Cl122      Cl  0.26885738  0.99606014  0.73689411    -0.48330
C123        C  0.24188884  0.90734045  0.61566068     0.44200
H124        H  0.24681209  0.97639651  0.88542755     0.08410
N125        N  0.38793516  0.93979549  0.73433447    -0.45050
C126        C  0.06609778  0.13060565  0.71732295     0.44050
N127        N  0.06844766  0.19011445  0.74144819     0.02940
C128        C  0.91020210  0.28959702  0.82273595    -0.04940
H129        H  0.88575831  0.17916302  0.68612537     0.08430
C130        C  0.96153735  0.25746366  0.61444105    -0.05290
Co131      Co  0.99633668  0.20456604  0.79198366     0.74180
N132        N  0.92664693  0.19817223  0.73470062    -0.24470
Co133      Co  0.92680079  0.26092036  0.73427917     0.74070
C134        C  0.92414432  0.23220839  0.61258940     0.44150
N135        N  0.05457776  0.26994207  0.65742030     0.02550
N136        N  0.93011412  0.26047779  0.67173273     0.02660
N137        N  0.95671818  0.25326711  0.85683028    -0.45320
H138        H  0.01870842  0.10924650  0.76280588     0.08420
N139        N  0.95283873  0.17750621  0.75694280     0.02940
N140        N  0.92955562  0.32299128  0.73297885     0.02680
C141        C  0.92177142  0.38239900  0.75944067     0.44290
N142        N  0.08165863  0.25230092  0.68103968    -0.23930
C143        C  0.03992408  0.24450999  0.86384497    -0.04850
N144        N  0.08553554  0.16602930  0.71438545    -0.45030
N145        N  0.90511362  0.34578829  0.75525809    -0.45250
C146        C  0.06712025  0.27840456  0.86507926     0.44060
N147        N  0.95351436  0.24078221  0.81883849     0.02930
N148        N  0.08185301  0.31369177  0.74247359    -0.23950
N149        N  0.03973008  0.17157594  0.76222295    -0.24440
N150        N  0.05474623  0.33721541  0.72477332     0.02570
H151        H  0.13154377  0.32358939  0.78409533     0.08460
H152        H  0.98358030  0.40305849  0.73284765     0.08500
N153        N  0.92715137  0.26229967  0.79759552    -0.24490
N154        N  0.96261595  0.27421315  0.65254421    -0.24100
N155        N  0.06906016  0.25396491  0.80538852     0.02940
C156        C  0.93058348  0.13517135  0.71426147     0.44330
C157        C  0.10701036  0.22954786  0.65895943    -0.05350
N158        N  0.96221604  0.34202458  0.71960594    -0.24100
H159        H  0.98506499  0.26004399  0.59158462     0.08480
N160        N  0.95497443  0.13919057  0.74625572    -0.45320
H161        H  0.13062281  0.21015145  0.67104913     0.08470
C162        C  0.09243040  0.37632482  0.76323162     0.44170
C163        C  0.03894862  0.13243841  0.75156036    -0.04850
Co164      Co  0.07624827  0.25223659  0.74285195     0.73820
N165        N  0.05823190  0.25626444  0.61902864    -0.45040
C166        C  0.93315641  0.28578314  0.85991280     0.44430
N167        N  0.08635491  0.28100855  0.82924314    -0.45030
Co168      Co  0.00850080  0.30772589  0.68679812     0.73890
C169        C  0.96020366  0.38022416  0.73545411    -0.05360
C170        C  0.90865608  0.17245107  0.70864953    -0.04920
N171        N  0.04037414  0.23370617  0.82446150    -0.24450
N172        N  0.90684723  0.23677689  0.64916452    -0.45210
H173        H  0.88742701  0.31191195  0.81559908     0.08440
C174        C  0.10770363  0.33560461  0.76483657    -0.05330
Cl175      Cl  0.00188299  0.25673207  0.73863535    -0.48330
C176        C  0.09117453  0.23076377  0.61814294     0.44200
H177        H  0.01958009  0.23379054  0.88736665     0.08410
N178        N  0.05904342  0.37547466  0.73800071    -0.45050
C179        C  0.06868639  0.85689759  0.27736147     0.44050
N180        N  0.06983008  0.79671940  0.25534950     0.02940
C181        C  0.90952737  0.69746248  0.17733408    -0.04940
H182        H  0.88773669  0.80828183  0.31386971     0.08430
C183        C  0.96299776  0.73058494  0.38480892    -0.05290
Co184      Co  0.99677630  0.78179550  0.20647119     0.74180
N185        N  0.92786786  0.78898036  0.26476188    -0.24470
Co186      Co  0.92759179  0.72620956  0.26538281     0.74070
C187        C  0.92531946  0.75552805  0.38673510     0.44150
N188        N  0.05591212  0.71790877  0.34109749     0.02550
N189        N  0.93122405  0.72678277  0.32782024     0.02660
N190        N  0.95578042  0.73335640  0.14248458    -0.45320
H191        H  0.01998644  0.87731775  0.23280505     0.08420
N192        N  0.95411830  0.80942586  0.24238095     0.02940
N193        N  0.93033290  0.66418536  0.26691656     0.02680
C194        C  0.92251840  0.60482016  0.24040225     0.44290
N195        N  0.08275067  0.73553587  0.31715353    -0.23930
C196        C  0.03915141  0.74018122  0.13458003    -0.04850
N197        N  0.08775293  0.82136871  0.28130344    -0.45030
N198        N  0.90580268  0.64138801  0.24478338    -0.45250
C199        C  0.06616700  0.70604348  0.13343401     0.44060
N200        N  0.95334058  0.74581421  0.18053369     0.02930
N201        N  0.08282647  0.67321900  0.25658084    -0.23950
N202        N  0.04082507  0.81495425  0.23469070    -0.24440
N203        N  0.05570430  0.64985302  0.27437483     0.02570
H204        H  0.13229607  0.66319181  0.21475935     0.08460
H205        H  0.98460538  0.58424255  0.26645106     0.08500
N206        N  0.92714574  0.72457170  0.20218389    -0.24490
N207        N  0.96397785  0.71345965  0.34685037    -0.24100
N208        N  0.06899784  0.73161349  0.19276931     0.02940
C209        C  0.93318267  0.85164809  0.28601503     0.44330
C210        C  0.10792152  0.75878391  0.33893027    -0.05350
N211        N  0.96315895  0.64521158  0.28003516    -0.24100
H212        H  0.98668951  0.72838594  0.40753433     0.08480
N213        N  0.95704241  0.84757402  0.25357225    -0.45320
H214        H  0.13139369  0.77817393  0.32661508     0.08470
C215        C  0.09320238  0.61058663  0.23578348     0.44170
C216        C  0.04054283  0.85438956  0.24409332    -0.04850
Co217      Co  0.07709870  0.73455960  0.25525008     0.73820
N218        N  0.05962186  0.73196330  0.37934990    -0.45040
C219        C  0.93190775  0.70106312  0.13978037     0.44430
N220        N  0.08590497  0.70414329  0.16908273    -0.45030
Co221      Co  0.00968348  0.67971777  0.31240388     0.73890
C222        C  0.96113176  0.60703010  0.26411510    -0.05360
C223        C  0.91058060  0.81475712  0.29123914    -0.04920
N224        N  0.04013276  0.75170270  0.17375009    -0.24450
N225        N  0.90780812  0.75036138  0.35037292    -0.45210
H226        H  0.88661632  0.67542711  0.18486352     0.08440
C227        C  0.10862078  0.65121294  0.23423729    -0.05330
Cl228      Cl  0.00272359  0.73024580  0.26027055    -0.48330
C229        C  0.09230221  0.75776443  0.37987178     0.44200
H230        H  0.01873279  0.75078785  0.11106734     0.08410
N231        N  0.05984426  0.61158295  0.26108811    -0.45050
C232        C  0.39420889  0.75273512  0.08261510     0.44050
N233        N  0.33480558  0.72655775  0.07406214     0.02940
C234        C  0.24232731  0.65130884  0.89595523    -0.04940
H235        H  0.33650362  0.77558105  0.87051752     0.08430
C236        C  0.25617781  0.85524273  0.96154187    -0.05290
Co237      Co  0.32024481  0.68017270  0.99501738     0.74180
N238        N  0.32641220  0.73467512  0.92072079    -0.24470
Co239      Co  0.26483463  0.73505417  0.92589312     0.74070
C240        C  0.29014676  0.85664314  0.93426116     0.44150
N241        N  0.25246534  0.81156186  0.04864307     0.02550
N242        N  0.26634102  0.79723872  0.93251952     0.02660
N243        N  0.26861993  0.61249651  0.94587785    -0.45320
H244        H  0.41572071  0.72621050  0.02069595     0.08420
N245        N  0.34985024  0.71746226  0.94832651     0.02940
N246        N  0.20249902  0.73366371  0.93349830     0.02680
C247        C  0.14338052  0.70880470  0.93682288     0.44290
N248        N  0.27383967  0.79058272  0.07538758    -0.23930
C249        C  0.27060196  0.60844133  0.04278592    -0.04850
N250        N  0.35732510  0.74863190  0.09891366    -0.45030
N251        N  0.17878579  0.70599524  0.91710695    -0.45250
C252        C  0.24512775  0.60682032  0.08027187     0.44060
N253        N  0.28258523  0.65053065  0.94885320     0.02930
N254        N  0.20990700  0.72820992  0.07626641    -0.23950
N255        N  0.35426466  0.71318014  0.04147885    -0.24440
N256        N  0.18917801  0.75012034  0.04981192     0.02570
H257        H  0.19103243  0.68026812  0.11769721     0.08460
H258        H  0.12127568  0.75440668  0.98363960     0.08500
N259        N  0.26510761  0.67358094  0.92115000    -0.24490
N260        N  0.24572599  0.81616549  0.96120439    -0.24100
N261        N  0.27249899  0.66577461  0.07356653     0.02940
C262        C  0.38914081  0.75537630  0.91039413     0.44330
C263        C  0.30093172  0.81555328  0.09259383    -0.05350
N264        N  0.18368230  0.75448383  0.96214301    -0.24100
H265        H  0.24511257  0.87856508  0.98186443     0.08480
N266        N  0.38815750  0.73069766  0.94420110    -0.45320
H267        H  0.32301876  0.80857737  0.11580462     0.08470
C268        C  0.14681246  0.70811240  0.07276235     0.44170
C269        C  0.39252148  0.72890802  0.04391608    -0.04850
Co270      Co  0.27266327  0.72782024  0.07629286     0.73820
N271        N  0.26483481  0.84933481  0.04550460    -0.45040
C272        C  0.24316115  0.61112435  0.91270746     0.44430
N273        N  0.24895349  0.64340935  0.09716848    -0.45030
Co274      Co  0.21642109  0.78443504  0.00570055     0.73890
C275        C  0.14462030  0.74336499  0.96331527    -0.05360
C276        C  0.34846132  0.75669356  0.89470183    -0.04920
N277        N  0.28675313  0.64645547  0.04125437    -0.24450
N278        N  0.29333500  0.82104993  0.91503976    -0.45210
H279        H  0.22295836  0.66297658  0.87198591     0.08440
C280        C  0.18422049  0.70251331  0.09461453    -0.05330
Cl281      Cl  0.26887051  0.73154457  0.00068102    -0.48330
C282        C  0.29720635  0.85239811  0.06951600     0.44200
H283        H  0.27375340  0.58543893  0.01950364     0.08410
N284        N  0.15076058  0.73954947  0.04785362    -0.45050
C285        C  0.08639592  0.23393668  0.38649705     0.44050
N286        N  0.07988720  0.26166737  0.32731774     0.02940
C287        C  0.90215904  0.33566301  0.23353064    -0.04940
H288        H  0.88043554  0.20754850  0.32576019     0.08430
C289        C  0.97181251  0.13279291  0.24306287    -0.05290
Co290      Co  0.00104420  0.30768713  0.31186626     0.74180
N291        N  0.92841167  0.25102276  0.31651913    -0.24470
Co292      Co  0.93416238  0.25232352  0.25448951     0.74070
C293        C  0.94359377  0.13000733  0.27623460     0.44150
N294        N  0.05785731  0.17844834  0.24200747     0.02550
N295        N  0.94198357  0.19020711  0.25434788     0.02660
N296        N  0.95054147  0.37546873  0.26084267    -0.45320
H297        H  0.02474939  0.26049478  0.40726940     0.08420
N298        N  0.95519689  0.26869308  0.34052760     0.02940
N299        N  0.94260282  0.25547222  0.19203010     0.02680
C300        C  0.94592401  0.28152773  0.13298089     0.44290
N301        N  0.08376199  0.19915316  0.26457629    -0.23930
C302        C  0.04907590  0.38077409  0.26331000    -0.04850
N303        N  0.10374396  0.23876814  0.35003940    -0.45030
N304        N  0.92589012  0.28313996  0.16847176    -0.45250
C305        C  0.08777438  0.38319109  0.23969133     0.44060
N306        N  0.95481579  0.33717913  0.27396819     0.02930
N307        N  0.08443566  0.26334525  0.20187951    -0.23950
N308        N  0.04704017  0.27477163  0.34631652    -0.24440
N309        N  0.05850283  0.24191470  0.18010159     0.02570
H310        H  0.12486772  0.31263506  0.18478240     0.08460
H311        H  0.99352053  0.23702281  0.11051271     0.08500
N312        N  0.92792364  0.31369500  0.25596832    -0.24490
N313        N  0.97123648  0.17224395  0.23377548    -0.24100
N314        N  0.08031517  0.32389920  0.26641116     0.02940
C315        C  0.91964200  0.22765485  0.37904534     0.44330
C316        C  0.10094326  0.17360007  0.29131968    -0.05350
N317        N  0.97167621  0.23557994  0.17304774    -0.24100
H318        H  0.99261682  0.11006454  0.23179528     0.08480
N319        N  0.95196114  0.25397140  0.37859414    -0.45320
H320        H  0.12346615  0.18031120  0.31419802     0.08470
C321        C  0.08000670  0.28665581  0.13947535     0.44170
C322        C  0.04836842  0.25824089  0.38445878    -0.04850
Co323      Co  0.08358631  0.26193089  0.26501045     0.73820
N324        N  0.05509192  0.14032344  0.25328466    -0.45040
C325        C  0.91735696  0.37640404  0.23534775     0.44430
N326        N  0.10474771  0.34679120  0.24429844    -0.45030
Co327      Co  0.01516964  0.20572385  0.20585579     0.73890
C328        C  0.97291059  0.24738030  0.13397551    -0.05360
C329        C  0.90369866  0.22712566  0.33818199    -0.04920
N330        N  0.04728938  0.34264327  0.27939778    -0.24450
N331        N  0.92416975  0.16534714  0.28013907    -0.45210
H332        H  0.87868268  0.32362904  0.21383692     0.08440
C333        C  0.10212273  0.29046544  0.17712870    -0.05330
Cl334      Cl  0.00841361  0.25722873  0.25965895    -0.48330
C335        C  0.07868124  0.13652709  0.28595312     0.44200
H336        H  0.02543358  0.40340279  0.26549626     0.08410
N337        N  0.05624669  0.25427589  0.14202376    -0.45050
C338        C  0.24512486  0.91233505  0.38768602     0.44050
N339        N  0.27166655  0.92064419  0.32811058     0.02940
C340        C  0.34862397  0.09758584  0.23602276    -0.04940
H341        H  0.22257896  0.12202927  0.32912566     0.08430
C342        C  0.14427818  0.03152762  0.24779507    -0.05290
Co343      Co  0.31911238  0.99876548  0.31381765     0.74180
N344        N  0.26419191  0.07254419  0.31949415    -0.24470
Co345      Co  0.26470871  0.06734581  0.25749301     0.74070
C346        C  0.14258022  0.05851492  0.28205695     0.44150
N347        N  0.18830639  0.94531782  0.24347515     0.02550
N348        N  0.20231003  0.06049109  0.25827638     0.02660
N349        N  0.38776644  0.04833658  0.26271956    -0.45320
H350        H  0.27242472  0.97329091  0.40967951     0.08420
N351        N  0.28111290  0.04510731  0.34323491     0.02940
N352        N  0.26698475  0.06002822  0.19479677     0.02680
C353        C  0.29143945  0.05743975  0.13504728     0.44290
N354        N  0.20876773  0.91899034  0.26570213    -0.23930
C355        C  0.39164126  0.94975569  0.26511034    -0.04850
N356        N  0.24902680  0.89627358  0.35052659    -0.45030
N357        N  0.29427995  0.07691864  0.17077806    -0.45250
C358        C  0.39334298  0.91144539  0.24092970     0.44060
N359        N  0.34938580  0.04474635  0.27610401     0.02930
N360        N  0.27268086  0.91839689  0.20260204    -0.23950
N361        N  0.28541943  0.95275903  0.34780508    -0.24440
N362        N  0.25156243  0.94489071  0.18119038     0.02570
H363        H  0.32132962  0.87744017  0.18495280     0.08460
H364        H  0.24593448  0.01067767  0.11305888     0.08500
N365        N  0.32627435  0.07218289  0.25842605    -0.24490
N366        N  0.18355648  0.03202105  0.23739877    -0.24100
N367        N  0.33377062  0.92015173  0.26695625     0.02940
C368        C  0.24177427  0.08221420  0.38222960     0.44330
C369        C  0.18288156  0.90149436  0.29192130    -0.05350
N370        N  0.24627279  0.03160090  0.17582619    -0.24100
H371        H  0.12097626  0.01142838  0.23648380     0.08480
N372        N  0.26682575  0.04883685  0.38147672    -0.45320
H373        H  0.18942649  0.87855030  0.31437768     0.08470
C374        C  0.29581936  0.92296877  0.14016907     0.44170
C375        C  0.26950504  0.95039855  0.38623610    -0.04850
Co376      Co  0.27160627  0.91810254  0.26576083     0.73820
N377        N  0.14990110  0.94772169  0.25418416    -0.45040
C378        C  0.38916920  0.08162890  0.23748505     0.44430
N379        N  0.35633741  0.89548915  0.24471479    -0.45030
Co380      Co  0.21609192  0.98821674  0.20810018     0.73890
C381        C  0.25714177  0.03077481  0.13653916    -0.05360
C382        C  0.24144773  0.09810780  0.34139966    -0.04920
N383        N  0.35326199  0.95234917  0.28072237    -0.24450
N384        N  0.17820089  0.07764763  0.28530847    -0.45210
H385        H  0.33690449  0.12143643  0.21665805     0.08440
C386        C  0.29947308  0.90059969  0.17761125    -0.05330
Cl387      Cl  0.26824778  0.99303743  0.26167216    -0.48330
C388        C  0.14563098  0.92367831  0.28643151     0.44200
H389        H  0.41493266  0.97264007  0.26806033     0.08410
N390        N  0.26382249  0.94732605  0.14300928    -0.45050
C391        C  0.28868924  0.13079702  0.06356358     0.44050
N392        N  0.26547575  0.19047330  0.06577474     0.02940
C393        C  0.18292336  0.28734091  0.90526590    -0.04940
H394        H  0.31904614  0.17878263  0.88111744     0.08430
C395        C  0.39117890  0.25755449  0.95480078    -0.05290
Co396      Co  0.21482119  0.20416212  0.99323593     0.74180
N397        N  0.27100759  0.19731020  0.92265572    -0.24470
Co398      Co  0.27121975  0.25998189  0.92217907     0.74070
C399        C  0.39256376  0.23253061  0.91701110     0.44150
N400        N  0.34932032  0.26969125  0.04930666     0.02550
N401        N  0.33350939  0.25988914  0.92443244     0.02660
N402        N  0.14950656  0.25082941  0.95231181    -0.45320
H403        H  0.24300334  0.10953608  0.01634770     0.08420
N404        N  0.24968352  0.17658595  0.94962547     0.02940
N405        N  0.27223305  0.32199327  0.92465800     0.02680
C406        C  0.24540363  0.38117690  0.91775795     0.44290
N407        N  0.32618174  0.25254705  0.07717286    -0.23930
C408        C  0.14401973  0.24577427  0.03656036    -0.04850
N409        N  0.29240164  0.16628612  0.08288154    -0.45030
N410        N  0.24907988  0.34457094  0.90087536    -0.45250
C411        C  0.14346942  0.28046912  0.06288480     0.44060
N412        N  0.18764099  0.23938100  0.94968723     0.02930
N413        N  0.26543840  0.31422858  0.07756145    -0.23950
N414        N  0.24439331  0.17187195  0.03721456    -0.24440
N415        N  0.28248603  0.33716251  0.04950479     0.02570
H416        H  0.22392155  0.32501978  0.12722626     0.08460
H417        H  0.27388508  0.40233602  0.97866860     0.08500
N418        N  0.20840072  0.26094503  0.92297367    -0.24490
N419        N  0.35311152  0.27375651  0.95672449    -0.24100
N420        N  0.20226958  0.25478739  0.06579686     0.02940
C421        C  0.29286083  0.13502584  0.92727306     0.44330
C422        C  0.34841028  0.22984887  0.10244175    -0.05350
N423        N  0.28645855  0.34120609  0.95700634    -0.24100
H424        H  0.41437593  0.26049074  0.97796499     0.08480
N425        N  0.26134742  0.13853816  0.95231393    -0.45320
H426        H  0.33666574  0.21076814  0.12656411     0.08470
C427        C  0.24340361  0.37669278  0.08597502     0.44170
C428        C  0.25450722  0.13268883  0.03659527    -0.04850
Co429      Co  0.26461157  0.25273027  0.07269829     0.73820
N430        N  0.38741548  0.25565108  0.05233432    -0.45040
C431        C  0.14581795  0.28274770  0.92795821     0.44430
N432        N  0.17903918  0.28280152  0.08233249    -0.45030
Co433      Co  0.31966623  0.30724833  0.00308733     0.73890
C434        C  0.27063261  0.37935118  0.95538694    -0.05360
C435        C  0.29713558  0.17195708  0.90455661    -0.04920
N436        N  0.18296057  0.23420699  0.03734761    -0.24450
N437        N  0.35579202  0.23665805  0.90039533    -0.45210
H438        H  0.18972838  0.30941397  0.88202677     0.08440
C439        C  0.24301462  0.33661264  0.10300436    -0.05330
Cl440      Cl  0.26791618  0.25632908  0.99783455    -0.48330
C441        C  0.38868443  0.23049250  0.08568770     0.44200
H442        H  0.12038629  0.23500814  0.01643720     0.08410
N443        N  0.26840947  0.37517803  0.05244463    -0.45050
C444        C  0.76884020  0.07464143  0.38537496     0.44050
N445        N  0.74073181  0.06769379  0.32631768     0.02940
C446        C  0.66308573  0.89012717  0.23602845    -0.04940
H447        H  0.78951898  0.86698704  0.32908152     0.08430
C448        C  0.86764433  0.95598949  0.24675854    -0.05290
Co449      Co  0.69279819  0.98980306  0.31245048     0.74180
N450        N  0.74752967  0.91600885  0.31881916    -0.24470
Co451      Co  0.74709698  0.92049299  0.25683179     0.74070
C452        C  0.86928312  0.92937466  0.28127929     0.44150
N453        N  0.82372666  0.04222503  0.24167228     0.02550
N454        N  0.80955210  0.92723626  0.25752239     0.02660
N455        N  0.62401414  0.93961294  0.26251339    -0.45320
H456        H  0.74059868  0.01435985  0.40740718     0.08420
N457        N  0.73065741  0.94382084  0.34216356     0.02940
N458        N  0.74483961  0.92718881  0.19412548     0.02680
C459        C  0.72014994  0.92957460  0.13453375     0.44290
N460        N  0.80339517  0.06890213  0.26362350    -0.23930
C461        C  0.62043428  0.03831420  0.26307812    -0.04850
N462        N  0.76445698  0.09126291  0.34851480    -0.45030
N463        N  0.71723083  0.91040480  0.17039213    -0.45250
C464        C  0.61877421  0.07638990  0.23854354     0.44060
N465        N  0.66249658  0.94349428  0.27540878     0.02930
N466        N  0.73929725  0.06889102  0.20068059    -0.23950
N467        N  0.72676573  0.03570154  0.34601458    -0.24440
N468        N  0.76035972  0.04212222  0.17953349     0.02570
H469        H  0.69062824  0.10961426  0.18256398     0.08460
H470        H  0.76594687  0.97574185  0.11195398     0.08500
N471        N  0.68554261  0.91587062  0.25790081    -0.24490
N472        N  0.82835919  0.95547374  0.23639046    -0.24100
N473        N  0.67824620  0.06805719  0.26508654     0.02940
C474        C  0.77061723  0.90791879  0.38143368     0.44330
C475        C  0.82943022  0.08667602  0.28953121    -0.05350
N476        N  0.76569277  0.95531885  0.17487081    -0.24100
H477        H  0.89099414  0.97591447  0.23525012     0.08480
N478        N  0.74534536  0.94102758  0.38027184    -0.45320
H479        H  0.82307590  0.11002408  0.31164515     0.08470
C480        C  0.71580058  0.06327018  0.13839027     0.44170
C481        C  0.74341041  0.03738895  0.38413344    -0.04850
Co482      Co  0.74051790  0.06987251  0.26385619     0.73820
N483        N  0.86211223  0.03972894  0.25239248    -0.45040
C484        C  0.62252749  0.90598621  0.23776758     0.44430
N485        N  0.65573886  0.09246843  0.24249340    -0.45030
Co486      Co  0.79587256  0.99904705  0.20674079     0.73890
C487        C  0.75473461  0.95587243  0.13561102    -0.05360
C488        C  0.77053445  0.89098906  0.34102952    -0.04920
N489        N  0.65872667  0.03594304  0.27896005    -0.24450
N490        N  0.83364213  0.91032234  0.28470530    -0.45210
H491        H  0.67469303  0.86601164  0.21690204     0.08440
C492        C  0.71239231  0.08627460  0.17552287    -0.05330
Cl493      Cl  0.74372276  0.99475496  0.26030182    -0.48330
C494        C  0.86651173  0.06414535  0.28432295     0.44200
H495        H  0.59719677  0.01537870  0.26602029     0.08410
N496        N  0.74796460  0.03917045  0.14144463    -0.45050
C497        C  0.61962338  0.23203797  0.08095681     0.44050
N498        N  0.67870269  0.25920052  0.07371105     0.02940
C499        C  0.77016937  0.33565597  0.89570537    -0.04940
H500        H  0.67667243  0.20944908  0.87159047     0.08430
C501        C  0.75901566  0.13166505  0.96136140    -0.05290
Co502      Co  0.69300598  0.30622442  0.99504612     0.74180
N503        N  0.68701884  0.25139619  0.92095534    -0.24470
Co504      Co  0.74871046  0.25177495  0.92585637     0.74070
C505        C  0.72496693  0.12994209  0.93424256     0.44150
N506        N  0.76229678  0.17542697  0.04850719     0.02550
N507        N  0.74806045  0.18957046  0.93242521     0.02660
N508        N  0.74382490  0.37430946  0.94578618    -0.45320
H509        H  0.59818273  0.25959386  0.01969187     0.08420
N510        N  0.66370731  0.26863782  0.94866274     0.02940
N511        N  0.81105678  0.25396888  0.93335222     0.02680
C512        C  0.86987074  0.27957589  0.93679475     0.44290
N513        N  0.74075590  0.19612073  0.07537822    -0.23930
C514        C  0.74168599  0.37828287  0.04314337    -0.04850
N515        N  0.65625194  0.23626621  0.09780877    -0.45030
N516        N  0.83442255  0.28199583  0.91708503    -0.45250
C517        C  0.76672742  0.38010376  0.08089147     0.44060
N518        N  0.73025277  0.33615421  0.94886305     0.02930
N519        N  0.80368797  0.25941089  0.07614500    -0.23950
N520        N  0.65931873  0.27288735  0.04122281    -0.24440
N521        N  0.82466891  0.23781667  0.04958556     0.02570
H522        H  0.82196804  0.30784940  0.11732207     0.08460
H523        H  0.89257213  0.23398259  0.98328650     0.08500
N524        N  0.74774874  0.31322407  0.92105666    -0.24490
N525        N  0.76899703  0.17087367  0.96101109    -0.24100
N526        N  0.74013127  0.32089062  0.07377582     0.02940
C527        C  0.62447133  0.22933413  0.91223941     0.44330
C528        C  0.71402055  0.17085047  0.09265130    -0.05350
N529        N  0.83015692  0.23329909  0.96188759    -0.24100
H530        H  0.77032941  0.10849111  0.98169185     0.08480
N531        N  0.62562606  0.25464908  0.94548494    -0.45320
H532        H  0.69188647  0.17757298  0.11590636     0.08470
C533        C  0.86633473  0.28084960  0.07201163     0.44170
C534        C  0.62124718  0.25676167  0.04300552    -0.04850
Co535      Co  0.74090553  0.25885099  0.07629563     0.73820
N536        N  0.75023087  0.13757021  0.04518373    -0.45040
C537        C  0.76905293  0.37585214  0.91244546     0.44430
N538        N  0.76314360  0.34347510  0.09769027    -0.45030
Co539      Co  0.79788112  0.20301291  0.00549273     0.73890
C540        C  0.86908531  0.24484168  0.96303630    -0.05360
C541        C  0.66486427  0.22858378  0.89566379    -0.04920
N542        N  0.72597973  0.34012194  0.04138904    -0.24450
N543        N  0.72120037  0.16548778  0.91513189    -0.45210
H544        H  0.78953706  0.32411121  0.87165805     0.08440
C545        C  0.82901217  0.28567391  0.09422904    -0.05330
Cl546      Cl  0.74479247  0.25528631  0.00075764    -0.48330
C547        C  0.71805548  0.13418377  0.06937496     0.44200
H548        H  0.73847954  0.40127498  0.01987632     0.08410
N549        N  0.86284704  0.24915263  0.04734154    -0.45050
C550        C  0.08770977  0.75487592  0.61286849     0.44050
N551        N  0.08130734  0.72703756  0.67205625     0.02940
C552        C  0.90345036  0.65269440  0.76499836    -0.04940
H553        H  0.88135065  0.77942542  0.67181606     0.08430
C554        C  0.97321465  0.85562413  0.75305069    -0.05290
Co555      Co  0.00261159  0.68045830  0.68696083     0.74180
N556        N  0.92979920  0.73657701  0.68152876    -0.24470
Co557      Co  0.93528059  0.73606456  0.74347369     0.74070
C558        C  0.94589005  0.85779294  0.71900171     0.44150
N559        N  0.05914010  0.81005962  0.75757904     0.02550
N560        N  0.94336618  0.79815032  0.74263663     0.02660
N561        N  0.95182868  0.61277407  0.73769264    -0.45320
H562        H  0.02657792  0.72755253  0.59177361     0.08420
N563        N  0.95680660  0.71892938  0.65778263     0.02940
N564        N  0.94275720  0.73381639  0.80601944     0.02680
C565        C  0.94484293  0.70902645  0.86558293     0.44290
N566        N  0.08510878  0.78932313  0.73510054    -0.23930
C567        C  0.05053922  0.60754131  0.73558191    -0.04850
N568        N  0.10489256  0.75036508  0.64947581    -0.45030
N569        N  0.92543278  0.70673484  0.82979989    -0.45250
C570        C  0.08902254  0.60517277  0.75950272     0.44060
N571        N  0.95623010  0.65108510  0.72471304     0.02930
N572        N  0.08457602  0.72505291  0.79780367    -0.23950
N573        N  0.04873009  0.71354004  0.65283837    -0.24440
N574        N  0.05839934  0.74663324  0.81921152     0.02570
H575        H  0.12445171  0.67550036  0.81555702     0.08460
H576        H  0.99261220  0.75336978  0.88793132     0.08500
N577        N  0.92929242  0.67463229  0.74264956    -0.24490
N578        N  0.97228394  0.81641081  0.76339242    -0.24100
N579        N  0.08152075  0.66456984  0.73303740     0.02940
C580        C  0.92085534  0.75911678  0.61880647     0.44330
C581        C  0.10301715  0.81500761  0.70897204    -0.05350
N582        N  0.97160671  0.75385357  0.82510845    -0.24100
H583        H  0.99366348  0.87862384  0.76433451     0.08480
N584        N  0.95348849  0.73317781  0.61955847    -0.45320
H585        H  0.12567035  0.80823799  0.68621280     0.08470
C586        C  0.07910116  0.70180167  0.86025664     0.44170
C587        C  0.05006051  0.73005333  0.61469097    -0.04850
Co588      Co  0.08466838  0.72656605  0.73451668     0.73820
N589        N  0.05708578  0.84840068  0.74700177    -0.45040
C590        C  0.91855115  0.61190416  0.76304884     0.44430
N591        N  0.10586687  0.64166926  0.75526918    -0.45030
Co592      Co  0.01563790  0.78305367  0.79268583     0.73890
C593        C  0.97218049  0.74281168  0.86440850    -0.05360
C594        C  0.90481183  0.75991763  0.65959710    -0.04920
N595        N  0.04871348  0.64573759  0.71970353    -0.24450
N596        N  0.92626815  0.82249986  0.71586465    -0.45210
H597        H  0.87977495  0.66470439  0.78448015     0.08440
C598        C  0.10171373  0.69782016  0.82285771    -0.05330
Cl599      Cl  0.00962549  0.73118553  0.73904505    -0.48330
C600        C  0.08134480  0.85238539  0.71490476     0.44200
H601        H  0.02703091  0.58483373  0.73304415     0.08410
N602        N  0.05552753  0.73431915  0.85727031    -0.45050
C603        C  0.86859185  0.05580688  0.71652444     0.44050
N604        N  0.80906909  0.05856692  0.74091781     0.02940
C605        C  0.70973369  0.90099216  0.82206413    -0.04940
H606        H  0.82231768  0.87564675  0.68749699     0.08430
C607        C  0.74362160  0.95001017  0.61389515    -0.05290
Co608      Co  0.79482274  0.98694685  0.79184512     0.74180
N609        N  0.80242021  0.91695173  0.73529237    -0.24470
Co610      Co  0.73960841  0.91671467  0.73404580     0.74070
C611        C  0.76924558  0.91286447  0.61267063     0.44150
N612        N  0.73034448  0.04329203  0.65615793     0.02550
N613        N  0.74071360  0.91943381  0.67157601     0.02660
N614        N  0.74544993  0.94753899  0.85658499    -0.45320
H615        H  0.89033504  0.00927392  0.76256039     0.08420
N616        N  0.82269036  0.94330232  0.75765839     0.02940
N617        N  0.67747769  0.91876576  0.73179591     0.02680
C618        C  0.61761861  0.91004673  0.75701041     0.44290
N619        N  0.74732523  0.07083521  0.67968085    -0.23930
C620        C  0.75404766  0.03040238  0.86277189    -0.04850
N621        N  0.83308655  0.07518821  0.71352453    -0.45030
N622        N  0.65462973  0.89398077  0.75352850    -0.45250
C623        C  0.71951474  0.05680016  0.86396434     0.44060
N624        N  0.75848211  0.94428238  0.81872895     0.02930
N625        N  0.68520410  0.07103785  0.74044632    -0.23950
N626        N  0.82777242  0.03016708  0.76196728    -0.24440
N627        N  0.66206855  0.04346596  0.72302732     0.02570
H628        H  0.67470959  0.12067422  0.78180921     0.08460
H629        H  0.59636328  0.97141440  0.73006149     0.08500
N630        N  0.73738977  0.91776477  0.79729766    -0.24490
N631        N  0.72672072  0.95149005  0.65191826    -0.24100
N632        N  0.74420403  0.05914182  0.80430269     0.02940
C633        C  0.86596986  0.92048733  0.71617330     0.44330
C634        C  0.77031053  0.09596205  0.65760263    -0.05350
N635        N  0.65813852  0.95104923  0.71806927    -0.24100
H636        H  0.74086251  0.97311922  0.59069704     0.08480
N637        N  0.86132531  0.94518785  0.74781243    -0.45320
H638        H  0.78936461  0.11982277  0.66968653     0.08470
C639        C  0.62241505  0.08074251  0.76144826     0.44170
C640        C  0.86697915  0.02927069  0.75117647    -0.04850
Co641      Co  0.74670767  0.06595337  0.74161492     0.73820
N642        N  0.74486573  0.04634988  0.61801166    -0.45040
C643        C  0.71279126  0.92406492  0.85921422     0.44430
N644        N  0.71674334  0.07609511  0.82813459    -0.45030
Co645      Co  0.69244322  0.99731311  0.68549972     0.73890
C646        C  0.61960392  0.94847371  0.73317430    -0.05360
C647        C  0.82866319  0.89871024  0.70991532    -0.04920
N648        N  0.76494071  0.03091934  0.82351207    -0.24450
N649        N  0.76475374  0.89608625  0.64944870    -0.45210
H650        H  0.68771817  0.87800886  0.81475688     0.08440
C651        C  0.66292406  0.09670780  0.76262396    -0.05330
Cl652      Cl  0.74305149  0.99163656  0.73788058    -0.48330
C653        C  0.77018549  0.07937739  0.61704598     0.44200
H654        H  0.76526227  0.01043930  0.88636720     0.08410
N655        N  0.62373368  0.04719260  0.73650814    -0.45050
C656        C  0.72093216  0.85713995  0.06299957     0.44050
N657        N  0.74489244  0.79776822  0.06565377     0.02940
C658        C  0.82844602  0.70121571  0.90548974    -0.04940
H659        H  0.69100616  0.80884943  0.88183550     0.08430
C660        C  0.61956436  0.72923949  0.95364393    -0.05290
Co661      Co  0.79596241  0.78434726  0.99332486     0.74180
N662        N  0.73966903  0.79073584  0.92280200    -0.24470
Co663      Co  0.73996707  0.72807609  0.92223371     0.74070
C664        C  0.61814533  0.75342217  0.91522632     0.44150
N665        N  0.66151050  0.71802601  0.04945589     0.02550
N666        N  0.67769437  0.72762422  0.92415075     0.02660
N667        N  0.86164622  0.73799113  0.95253783    -0.45320
H668        H  0.76700987  0.87881919  0.01637344     0.08420
N669        N  0.76099784  0.81163900  0.94964164     0.02940
N670        N  0.73929322  0.66612083  0.92473495     0.02680
C671        C  0.76608784  0.60697280  0.91765118     0.44290
N672        N  0.68470859  0.73534749  0.07718127    -0.23930
C673        C  0.86696621  0.74335431  0.03688902    -0.04850
N674        N  0.71748254  0.82168260  0.08240445    -0.45030
N675        N  0.76247263  0.64361321  0.90089770    -0.45250
C676        C  0.86771860  0.70889977  0.06348331     0.44060
N677        N  0.82344775  0.74924129  0.94985477     0.02930
N678        N  0.74584941  0.67408349  0.07748337    -0.23950
N679        N  0.76605443  0.81650834  0.03726314    -0.24440
N680        N  0.72877257  0.65101247  0.04952886     0.02570
H681        H  0.78735376  0.66350709  0.12720432     0.08460
H682        H  0.73750559  0.58566641  0.97848174     0.08500
N683        N  0.80282013  0.72751610  0.92315086    -0.24490
N684        N  0.65792638  0.71382012  0.95636625    -0.24100
N685        N  0.80866254  0.73398434  0.06594258     0.02940
C686        C  0.71712146  0.85278070  0.92784514     0.44330
C687        C  0.66244295  0.75738495  0.10302247    -0.05350
N688        N  0.72498083  0.64684233  0.95699460    -0.24100
H689        H  0.59610969  0.72609996  0.97654081     0.08480
N690        N  0.74901002  0.84957677  0.95243913    -0.45320
H691        H  0.67419868  0.77633482  0.12726739     0.08470
C692        C  0.76784688  0.61165210  0.08614441     0.44170
C693        C  0.75554063  0.85558172  0.03652367    -0.04850
Co694      Co  0.74626884  0.73557961  0.07264362     0.73820
N695        N  0.62313200  0.73116183  0.05332275    -0.45040
C696        C  0.86552206  0.70609347  0.92814901     0.44430
N697        N  0.83206299  0.70627796  0.08272709    -0.45030
Co698      Co  0.69146503  0.68068246  0.00304375     0.73890
C699        C  0.74082385  0.60870587  0.95528103    -0.05360
C700        C  0.71307369  0.81584118  0.90506017    -0.04920
N701        N  0.82792084  0.75458982  0.03749366    -0.24450
N702        N  0.65528783  0.74987118  0.89932235    -0.45210
H703        H  0.82176304  0.67902537  0.88231032     0.08440
C704        C  0.76832347  0.65182601  0.10296947    -0.05330
Cl705      Cl  0.74306801  0.73186474  0.99784523    -0.48330
C706        C  0.62187440  0.75589632  0.08709263     0.44200
H707        H  0.89056883  0.75417604  0.01676414     0.08410
N708        N  0.74281846  0.61299600  0.05262501    -0.45050
C709        C  0.69394359  0.91455931  0.89618251    -0.11680
C710        C  0.69597553  0.88882486  0.92086935    -0.13240
C711        C  0.90263902  0.68677883  0.92115679    -0.11680
C712        C  0.93161826  0.68830882  0.90024370    -0.13240
C713        C  0.93257987  0.89273040  0.69914125    -0.11680
C714        C  0.90350866  0.91336973  0.69763817    -0.13240
C715        C  0.70247367  0.09553925  0.92416283    -0.11680
C716        C  0.70001645  0.06987288  0.89941587    -0.13240
C717        C  0.69762975  0.09781414  0.07658199    -0.11680
C718        C  0.69662295  0.07220350  0.10144948    -0.13240
C719        C  0.69977870  0.89202768  0.07432733    -0.11680
C720        C  0.69939931  0.91747185  0.09944064    -0.13240
C721        C  0.31107733  0.07023946  0.09957635    -0.11680
C722        C  0.30986063  0.09586411  0.07469074    -0.13240
C723        C  0.08800598  0.30638031  0.10261400    -0.11680
C724        C  0.10968384  0.30342023  0.07425596    -0.13240
C725        C  0.90280167  0.30171628  0.07785748    -0.11680
C726        C  0.93221861  0.30174592  0.09820024    -0.13240
C727        C  0.90436008  0.07314217  0.30122087    -0.11680
C728        C  0.93211701  0.09520445  0.29745690    -0.13240
C729        C  0.10783411  0.07106836  0.30294227    -0.11680
C730        C  0.08622799  0.09936545  0.30487984    -0.13240
C731        C  0.31645582  0.88905208  0.07830507    -0.11680
C732        C  0.31581200  0.91432180  0.10357511    -0.13240
C733        C  0.08735695  0.68292812  0.89752452    -0.11680
C734        C  0.10923419  0.68628455  0.92569663    -0.13240
C735        C  0.90396714  0.91716264  0.30245656    -0.11680
C736        C  0.92563240  0.88894036  0.30470857    -0.13240
C737        C  0.08029076  0.89159923  0.29873215    -0.11680
C738        C  0.10774592  0.91399197  0.30283899    -0.13240
C739        C  0.90146353  0.68574422  0.07455016    -0.11680
C740        C  0.92333939  0.68203897  0.10266418    -0.13240
C741        C  0.08064164  0.68673110  0.09844237    -0.11680
C742        C  0.11022718  0.68739316  0.07835099    -0.13240
C743        C  0.92553245  0.30516958  0.89708218    -0.11680
C744        C  0.90387274  0.30221061  0.92546685    -0.13240
C745        C  0.07983495  0.29966868  0.89961387    -0.11680
C746        C  0.10868065  0.30186819  0.92063903    -0.13240
C747        C  0.92385614  0.09809746  0.69479851    -0.11680
C748        C  0.90334184  0.06898764  0.69610370    -0.13240
C749        C  0.31226763  0.91679556  0.89766138    -0.11680
C750        C  0.31143605  0.89131797  0.92269785    -0.13240
C751        C  0.31727051  0.07314199  0.89628928    -0.11680
C752        C  0.31430190  0.09905755  0.92072242    -0.13240
C753        C  0.10906976  0.07502066  0.69693547    -0.11680
C754        C  0.07998860  0.09568679  0.69780206    -0.13240
C755        C  0.08771108  0.88935528  0.69513131    -0.11680
C756        C  0.10799457  0.91865900  0.69570736    -0.13240
C757        C  0.90892383  0.58258592  0.79547037    -0.11680
C758        C  0.89871702  0.56171069  0.82480537    -0.13240
C759        C  0.83121500  0.56254360  0.89605257    -0.11680
C760        C  0.80129974  0.58169722  0.90726853    -0.13240
C761        C  0.91004421  0.40802849  0.79435983    -0.11680
C762        C  0.89884697  0.42714996  0.82459237    -0.13240
C763        C  0.83166762  0.42536600  0.89564079    -0.11680
C764        C  0.80243152  0.40426438  0.90481817    -0.13240
C765        C  0.89899423  0.56046397  0.17521048    -0.11680
C766        C  0.91056651  0.57932054  0.20546611    -0.13240
C767        C  0.83096985  0.56304781  0.10409866    -0.11680
C768        C  0.80150405  0.58354810  0.09413303    -0.13240
C769        C  0.90814230  0.40547571  0.20252288    -0.11680
C770        C  0.89824434  0.42620345  0.17294108    -0.13240
C771        C  0.83135711  0.42557798  0.10176528    -0.11680
C772        C  0.80176795  0.40556705  0.09128650    -0.13240
C773        C  0.88186414  0.51501197  0.02088215    -0.11760
C774        C  0.85038444  0.49655071  0.04319659     0.10390
C775        C  0.81812335  0.47902028  0.02093480    -0.11760
C776        C  0.81842262  0.47855988  0.97767625    -0.11760
C777        C  0.85090590  0.49580530  0.95559477     0.10390
C778        C  0.88209927  0.51468045  0.97801673    -0.11760
H779        H  0.90716503  0.52886749  0.03680986     0.14380
H780        H  0.79245909  0.46602696  0.03678839     0.14380
H781        H  0.79304808  0.46513231  0.96166726     0.14380
H782        H  0.90751523  0.52841750  0.96217837     0.14380
C783        C  0.11263427  0.56140731  0.17297321    -0.11680
C784        C  0.10250968  0.58176063  0.20275806    -0.13240
C785        C  0.18000606  0.56204970  0.10140144    -0.11680
C786        C  0.20984462  0.58153491  0.09052382    -0.13240
C787        C  0.11156805  0.42733178  0.17444038    -0.11680
C788        C  0.09979193  0.40858870  0.20469387    -0.13240
C789        C  0.20950469  0.40461238  0.09361377    -0.11680
C790        C  0.17986309  0.42497312  0.10336742    -0.13240
C791        C  0.02665128  0.53034338  0.14955308    -0.11760
C792        C  0.04948910  0.49409793  0.15061092     0.10390
C793        C  0.02679628  0.45773907  0.14898667    -0.11760
C794        C  0.98414149  0.45759659  0.14931787    -0.11760
C795        C  0.96131105  0.49382431  0.15091874     0.10390
C796        C  0.98398352  0.53020552  0.14956352    -0.11760
H797        H  0.04112773  0.55943517  0.14610797     0.14380
H798        H  0.04136774  0.42875894  0.14486413     0.14380
H799        H  0.96964240  0.42853258  0.14568805     0.14380
H800        H  0.96936980  0.55922209  0.14591983     0.14380
C801        C  0.10077720  0.57958883  0.79441979    -0.11680
C802        C  0.11218840  0.56062348  0.82465521    -0.13240
C803        C  0.17996811  0.56236394  0.89576312    -0.11680
C804        C  0.20949016  0.58297287  0.90521902    -0.13240
C805        C  0.11248718  0.42616905  0.82526326    -0.11680
C806        C  0.10215903  0.40546443  0.79582111    -0.13240
C807        C  0.21005009  0.40637664  0.90761744    -0.11680
C808        C  0.18004366  0.42551023  0.89660145    -0.13240
C809        C  0.12477047  0.48189310  0.97787053    -0.11760
C810        C  0.15949207  0.49320370  0.95561201     0.10390
C811        C  0.19478127  0.50372070  0.97765101    -0.11760
C812        C  0.19489129  0.50327935  0.02096239    -0.11760
C813        C  0.15971487  0.49232340  0.04300668     0.10390
C814        C  0.12487302  0.48148046  0.02071707    -0.11760
H815        H  0.09710794  0.47377853  0.96187812     0.14380
H816        H  0.22216979  0.51217011  0.96144640     0.14380
H817        H  0.22235596  0.51147297  0.03716467     0.14380
H818        H  0.09724810  0.47320339  0.03668661     0.14380
C819        C  0.02698450  0.53016909  0.84918001    -0.11760
C820        C  0.04968523  0.49379335  0.84766831     0.10390
C821        C  0.02685336  0.45756861  0.84885785    -0.11760
C822        C  0.98420200  0.45771832  0.84882765    -0.11760
C823        C  0.96150948  0.49409906  0.84744684     0.10390
C824        C  0.98432612  0.53032189  0.84895995    -0.11760
H825        H  0.04154330  0.55915433  0.85315668     0.14380
H826        H  0.04130450  0.42847459  0.85248024     0.14380
H827        H  0.96964127  0.42870524  0.85252008     0.14380
H828        H  0.96982222  0.55939249  0.85264374     0.14380
C829        C  0.57260893  0.88653478  0.82161542    -0.11680
C830        C  0.59169434  0.89797318  0.79150474    -0.13240
C831        C  0.59211028  0.78754072  0.90286252    -0.11680
C832        C  0.57276568  0.81727302  0.89132992    -0.13240
C833        C  0.43867838  0.88637807  0.82146737    -0.11680
C834        C  0.41827702  0.89667409  0.79181717    -0.13240
C835        C  0.43849953  0.81729720  0.89053530    -0.11680
C836        C  0.41805809  0.78788891  0.90076197    -0.13240
C837        C  0.57245503  0.88639012  0.17590130    -0.11680
C838        C  0.59320327  0.89655038  0.20532809    -0.13240
C839        C  0.59276828  0.78827645  0.09657648    -0.11680
C840        C  0.57223694  0.81762762  0.10681167    -0.13240
C841        C  0.43822297  0.88730061  0.17626079    -0.11680
C842        C  0.41918906  0.89905997  0.20636043    -0.13240
C843        C  0.43834275  0.81746875  0.10646466    -0.11680
C844        C  0.41962146  0.78736581  0.09484983    -0.13240
C845        C  0.54168126  0.84140780  0.02033679    -0.11760
C846        C  0.50523125  0.84011520  0.04311903     0.10390
C847        C  0.46887649  0.84121471  0.02015101    -0.11760
C848        C  0.46897759  0.84099234  0.97723949    -0.11760
C849        C  0.50544660  0.83983729  0.95446883     0.10390
C850        C  0.54178298  0.84134055  0.97743777    -0.11760
H851        H  0.57074836  0.84509630  0.03506666     0.14380
H852        H  0.43971549  0.84481174  0.03472138     0.14380
H853        H  0.43988140  0.84433318  0.96248485     0.14380
H854        H  0.57091922  0.84506889  0.96286552     0.14380
C855        C  0.57327734  0.10013137  0.82436147    -0.11680
C856        C  0.59361641  0.08997817  0.79455717    -0.13240
C857        C  0.59601801  0.19602861  0.90435197    -0.11680
C858        C  0.57468886  0.16695365  0.89521288    -0.13240
C859        C  0.43902616  0.09979134  0.82285662    -0.11680
C860        C  0.42018154  0.08836334  0.79248965    -0.13240
C861        C  0.43699090  0.16749639  0.89482655    -0.11680
C862        C  0.41774996  0.19732046  0.90618386    -0.13240
C863        C  0.46942218  0.01465340  0.84720984    -0.11760
C864        C  0.50585024  0.03733728  0.84618311     0.10390
C865        C  0.54221612  0.01455214  0.84728297    -0.11760
C866        C  0.54216249  0.97199665  0.84675953    -0.11760
C867        C  0.50574225  0.94938165  0.84506678     0.10390
C868        C  0.46936395  0.97209164  0.84652321    -0.11760
H869        H  0.44031871  0.02914446  0.85114747     0.14380
H870        H  0.57134902  0.02895323  0.85117146     0.14380
H871        H  0.57125087  0.95736487  0.85028572     0.14380
H872        H  0.44023008  0.95750991  0.84976395     0.14380
C873        C  0.57373002  0.09982176  0.17357674    -0.11680
C874        C  0.59297985  0.08842140  0.20372082    -0.13240
C875        C  0.59460806  0.19672338  0.09154421    -0.11680
C876        C  0.57482213  0.16699258  0.10201450    -0.13240
C877        C  0.41833215  0.09071137  0.20463652    -0.11680
C878        C  0.43894894  0.10071100  0.17497505    -0.14200
C879        C  0.41690465  0.19703023  0.09364078    -0.11680
C880        C  0.43735995  0.16762733  0.10365015    -0.13240
C881        C  0.54219776  0.01468250  0.15057422    -0.11760
C882        C  0.50593539  0.03764407  0.15193497     0.10390
C883        C  0.46941238  0.01513870  0.15101064    -0.11760
C884        C  0.46918969  0.97257890  0.15140321    -0.11760
C885        C  0.50547314  0.94969080  0.15282370     0.10390
C886        C  0.54197944  0.97213618  0.15114607    -0.11760
H887        H  0.57137698  0.02891154  0.14645385     0.14380
H888        H  0.44035617  0.02977927  0.14732558     0.14380
H889        H  0.43999102  0.95818077  0.14798591     0.14380
H890        H  0.57100085  0.95736876  0.14761413     0.14380
C891        C  0.52216600  0.17967968  0.02051687    -0.11760
C892        C  0.50370110  0.14801596  0.04280624     0.10390
C893        C  0.48364875  0.11760199  0.02037964    -0.11760
C894        C  0.48358595  0.11761148  0.97746903    -0.11760
C895        C  0.50364787  0.14799023  0.95501540     0.10390
C896        C  0.52226676  0.17960067  0.97723402    -0.11760
H897        H  0.53605492  0.20483200  0.03631341     0.14380
H898        H  0.46885089  0.09285456  0.03623842     0.14380
H899        H  0.46871582  0.09288343  0.96162726     0.14380
H900        H  0.53645833  0.20455777  0.96135006     0.14380
C901        C  0.91303354  0.79265349  0.59030252    -0.11680
C902        C  0.90378142  0.82187959  0.56902405    -0.13240
C903        C  0.80498150  0.90261122  0.58777502    -0.11680
C904        C  0.83508787  0.89146651  0.56868789    -0.13240
C905        C  0.83430459  0.89102477  0.43020359    -0.11680
C906        C  0.80472146  0.90030083  0.40936764    -0.13240
C907        C  0.90365891  0.82164835  0.43020841    -0.11680
C908        C  0.91500667  0.79147087  0.41134852    -0.13240
C909        C  0.91398110  0.19665863  0.58740896    -0.11680
C910        C  0.90287013  0.16672314  0.56808595    -0.13240
C911        C  0.83367641  0.09717410  0.56850989    -0.11680
C912        C  0.80409832  0.08722952  0.58898814    -0.13240
C913        C  0.91187998  0.19397725  0.40751805    -0.11680
C914        C  0.90278788  0.16475913  0.42894411    -0.13240
C915        C  0.80457156  0.08486620  0.41027121    -0.11680
C916        C  0.83455827  0.09528619  0.42993901    -0.13240
C917        C  0.88504783  0.01515487  0.52036748    -0.11760
C918        C  0.85370683  0.03731251  0.50147798     0.10390
C919        C  0.82146297  0.01510753  0.48387536    -0.11760
C920        C  0.82173929  0.97215025  0.48362415    -0.11760
C921        C  0.85419684  0.95020663  0.50113184     0.10390
C922        C  0.88527540  0.97258897  0.52021890    -0.11760
H923        H  0.91027681  0.03097326  0.53443307     0.14380
H924        H  0.79577117  0.03075935  0.47073031     0.14380
H925        H  0.79630717  0.95628954  0.47020020     0.14380
H926        H  0.91064942  0.95694809  0.53424432     0.14380
C927        C  0.18008381  0.10069709  0.56658562    -0.11680
C928        C  0.21000543  0.08928488  0.58588744    -0.13240
C929        C  0.10932287  0.16820365  0.56885477    -0.11680
C930        C  0.09934495  0.19751881  0.58956010    -0.13240
C931        C  0.09687543  0.19834902  0.41124588    -0.11680
C932        C  0.10748785  0.16843311  0.43074067    -0.13240
C933        C  0.17869268  0.10152014  0.43124369    -0.11680
C934        C  0.20843600  0.09149211  0.41081366    -0.13240
C935        C  0.02683166  0.11722393  0.52087190    -0.11760
C936        C  0.04883220  0.14850291  0.50182856     0.10390
C937        C  0.02644371  0.18031422  0.48375333    -0.11760
C938        C  0.98343445  0.17964179  0.48312273    -0.11760
C939        C  0.96169581  0.14725292  0.50079105     0.10390
C940        C  0.98420762  0.11663092  0.52039551    -0.11760
H941        H  0.04282196  0.09231190  0.53525888     0.14380
H942        H  0.04196561  0.20597249  0.47053657     0.14380
H943        H  0.96735164  0.20467930  0.46926252     0.14380
H944        H  0.96864352  0.09135271  0.53457253     0.14380
C945        C  0.10828469  0.82011138  0.56793118    -0.11680
C946        C  0.09795904  0.79031779  0.58777690    -0.13240
C947        C  0.17882251  0.88759887  0.56702079    -0.11680
C948        C  0.20860837  0.89791262  0.58716794    -0.13240
C949        C  0.10054332  0.79101305  0.40848948    -0.11680
C950        C  0.11036544  0.82025640  0.42939616    -0.13240
C951        C  0.21061063  0.90018863  0.41345037    -0.11680
C952        C  0.18056071  0.88843918  0.43229832    -0.13240
C953        C  0.15517672  0.97324803  0.53589897    -0.11760
C954        C  0.15646283  0.95048342  0.49935272     0.10390
C955        C  0.15510516  0.97314602  0.46270454    -0.11760
C956        C  0.15535049  0.01570432  0.46259764    -0.11760
C957        C  0.15663667  0.03846225  0.49914876     0.10390
C958        C  0.15514946  0.01580560  0.53579546    -0.11760
H959        H  0.15156830  0.95877841  0.56520663     0.14380
H960        H  0.15124903  0.95860769  0.43345110     0.14380
H961        H  0.15189817  0.03019049  0.43327982     0.14380
H962        H  0.15134159  0.03035351  0.56504943     0.14380
C963        C  0.02740708  0.80756426  0.51449973    -0.11760
C964        C  0.04967781  0.83947811  0.49653087     0.10390
C965        C  0.02760471  0.87078963  0.47759715    -0.11760
C966        C  0.98498965  0.87128744  0.47802929    -0.11760
C967        C  0.96256052  0.84051262  0.49743853     0.10390
C968        C  0.98439564  0.80809672  0.51500589    -0.11760
H969        H  0.04304429  0.78197035  0.52776588     0.14380
H970        H  0.04352799  0.89580693  0.46335040     0.14380
H971        H  0.96936274  0.89662123  0.46398997     0.14380
H972        H  0.96840161  0.78293926  0.52870537     0.14380
loop_ 
_geom_bond_atom_site_label_1 
_geom_bond_atom_site_label_2 
_geom_bond_distance 
_geom_bond_site_symmetry_2 
_ccdc_geom_bond_type 
C1            C2   1.418       .  A
C1            C6   1.450       .  A
C1          C945   1.469       .  S
C2            C3   1.415       .  A
C2          C964   1.514       .  S
C3            C4   1.446       .  A
C3          C950   1.469       .  S
C4            C5   1.420       .  A
C4          C952   1.474       .  S
C5            C6   1.422       .  A
C5          C954   1.533       .  S
C6          C947   1.476       .  S
C7            C8   1.420       .  A
C7           C12   1.446       .  A
C7          C927   1.476       .  S
C8            C9   1.422       .  A
C8          C957   1.532       .  S
C9           C10   1.450       .  A
C9          C933   1.478       .  S
C10          C11   1.418       .  A
C10         C932   1.468       .  S
C11          C12   1.414       .  A
C11         C936   1.515       .  S
C12         C929   1.468       .  S
C13          C14   1.419       .  A
C13          C18   1.452       .  A
C13         C914   1.475       .  S
C14          C15   1.414       .  A
C14         C939   1.514       .  S
C15          C16   1.445       .  A
C15         C910   1.473       .  S
C16          C17   1.415       .  A
C16         C911   1.470       .  S
C17          C18   1.420       .  A
C17         C918   1.518       .  S
C18         C916   1.471       .  S
C19          C20   1.417       .  A
C19          C24   1.448       .  A
C19         C902   1.472       .  S
C20          C21   1.414       .  A
C20         C967   1.514       .  S
C21          C22   1.450       .  A
C21         C907   1.473       .  S
C22          C23   1.419       .  A
C22         C905   1.471       .  S
C23          C24   1.415       .  A
C23         C921   1.518       .  S
C24         C904   1.471       .  S
C25          C26   1.415       .  A
C25          C30   1.446       .  A
C25         C880   1.468       .  S
C26          C27   1.420       .  A
C26         C892   1.518       .  S
C27          C28   1.452       .  A
C27         C876   1.469       .  S
C28          C29   1.422       .  A
C28         C873   1.479       .  S
C29          C30   1.421       .  A
C29         C882   1.533       .  S
C30         C878   1.477       .  S
C31          C32   1.416       .  A
C31          C36   1.449       .  A
C31         C861   1.470       .  S
C32          C33   1.419       .  A
C32         C895   1.517       .  S
C33          C34   1.449       .  A
C33         C858   1.469       .  S
C34          C35   1.421       .  A
C34         C855   1.476       .  S
C35          C36   1.421       .  A
C35         C864   1.533       .  S
C36         C859   1.477       .  S
C37          C38   1.422       .  A
C37          C42   1.451       .  A
C37         C841   1.476       .  S
C38          C39   1.421       .  A
C38         C885   1.531       .  S
C39          C40   1.446       .  A
C39         C837   1.473       .  S
C40          C41   1.420       .  A
C40         C840   1.473       .  S
C41          C42   1.421       .  A
C41         C846   1.531       .  S
C42         C843   1.475       .  S
C43          C44   1.421       .  A
C43          C48   1.448       .  A
C43         C833   1.474       .  S
C44          C45   1.421       .  A
C44         C867   1.531       .  S
C45          C46   1.449       .  A
C45         C829   1.473       .  S
C46          C47   1.421       .  A
C46         C832   1.474       .  S
C47          C48   1.421       .  A
C47         C849   1.531       .  S
C48         C835   1.473       .  S
C49          C50   1.422       .  A
C49          C54   1.449       .  A
C49         C802   1.476       .  S
C50          C51   1.422       .  A
C50         C820   1.532       .  S
C51          C52   1.446       .  A
C51         C805   1.476       .  S
C52          C53   1.412       .  A
C52         C808   1.468       .  S
C53          C54   1.414       .  A
C53         C810   1.508       .  S
C54         C803   1.469       .  S
C55          C56   1.414       .  A
C55          C60   1.448       .  A
C55         C790   1.469       .  S
C56          C57   1.414       .  A
C56         C813   1.509       .  S
C57          C58   1.449       .  A
C57         C785   1.470       .  S
C58          C59   1.423       .  A
C58         C783   1.476       .  S
C59          C60   1.420       .  A
C59         C792   1.532       .  S
C60         C787   1.477       .  S
C61          C62   1.420       .  A
C61          C66   1.447       .  A
C61         C765   1.476       .  S
C62          C63   1.422       .  A
C62         C795   1.532       .  S
C63          C64   1.448       .  A
C63         C770   1.477       .  S
C64          C65   1.418       .  A
C64         C771   1.468       .  S
C65          C66   1.415       .  A
C65         C774   1.514       .  S
C66         C767   1.469       .  S
C67          C68   1.422       .  A
C67          C72   1.445       .  A
C67         C758   1.476       .  S
C68          C69   1.421       .  A
C68         C823   1.532       .  S
C69          C70   1.449       .  A
C69         C762   1.476       .  S
C70          C71   1.418       .  A
C70         C763   1.468       .  S
C71          C72   1.413       .  A
C71         C777   1.513       .  S
C72         C759   1.468       .  S
C73         C756   1.394       .  S
C73         C110   1.435       .  S
C73          N91   1.336       .  A
N74          N91   1.315       .  A
N74          N96   1.316       .  A
N74        Co111   2.065       .  S
C75         C113   1.439       .  S
C75         N100   1.339       .  A
C75         H120   1.076       .  S
H76         C117   1.077       .  S
C77          C81   1.490       .  S
C77         N101   1.364       .  A
C77         H106   1.081       .  S
Co78         N96   2.043   1_545  S
Co78         N86   2.041       .  S
Co78        N118   2.036   1_545  S
Co78         N94   2.046       .  S
Co78       Cl122   2.460   1_545  S
N79         C117   1.340       .  A
N79          N86   1.318       .  A
N79         Co80   2.066       .  S
Co80         N83   2.048       .  S
Co80        N100   2.073       .  S
Co80         N87   2.046       .  S
Co80       Cl122   2.477   1_545  S
C81         C928   1.472       .  S
C81         N119   1.334       .  A
N82          N89   1.316       .  A
N82         N112   1.342       .  A
N82        Co115   2.196       .  S
N83         N101   1.321       .  A
N83         N119   1.321       .  A
N84         C113   1.328       .  A
N84          N94   1.315       .  A
H85         C110   1.079       .  S
N86         N107   1.313       .  A
N87         N105   1.320       .  A
N87          N92   1.320       .  A
C88         C860   1.474       .  S
C88         C116   1.493       .  S
C88          N92   1.333       .  A
N89         C104   1.335       .  A
N89        Co111   2.031       .  S
C90          C93   1.432       .  S
C90         N118   1.334       .  A
C90         H124   1.080       .  S
C93         C749   1.394       .  S
C93         N114   1.337       .  A
N94         N100   1.319       .  A
N95         C121   1.334       .  A
N95          N97   1.316       .  A
N95        Co111   2.031       .  S
N96         C110   1.338       .  A
N97         N125   1.342       .  A
N97        Co115   2.194       .  S
H98         C121   1.082       .  S
H99         C116   1.080       .  S
N101       Co115   2.185   1_545  S
N102        N114   1.318       .  A
N102        N118   1.315       .  A
N102       Co111   2.064       .  S
C103        C753   1.396       .  S
C103        C117   1.437       .  S
C103        N107   1.326       .  A
C104        C123   1.434       .  S
C104        H108   1.082       .  S
N105        C116   1.365       .  A
N105       Co115   2.186   1_545  S
C109        C834   1.469       .  S
C109        C121   1.434       .  S
C109        N125   1.375       .  A
Co111      Cl122   2.457       .  S
N112        C123   1.376       .  A
C113        C751   1.395       .  S
Co115      Cl122   2.399       .  S
C123        C948   1.472       .  S
C126        C754   1.394       .  S
C126        C163   1.434       .  S
C126        N144   1.336       .  A
N127        N144   1.316       .  A
N127        N149   1.316       .  A
N127       Co164   2.066       .  S
C128        C166   1.438       .  S
C128        N153   1.341       .  A
C128        H173   1.076       .  S
H129        C170   1.077       .  S
C130        C134   1.488       .  S
C130        N154   1.364       .  A
C130        H159   1.080       .  S
Co131       N149   2.042   1_655  S
Co131       N139   2.040       .  S
Co131       N171   2.039   1_655  S
Co131       N147   2.045       .  S
Co131      Cl175   2.459   1_655  S
N132        C170   1.341       .  A
N132        N139   1.318       .  A
N132       Co133   2.070       .  S
Co133       N136   2.050       .  S
Co133       N153   2.073       .  S
Co133       N140   2.050       .  S
Co133      Cl175   2.479   1_655  S
C134        C909   1.472       .  S
C134        N172   1.334       .  A
N135        N142   1.316       .  A
N135        N165   1.340       .  A
N135       Co168   2.185       .  S
N136        N154   1.321       .  A
N136        N172   1.320       .  A
N137        C166   1.327       .  A
N137        N147   1.314       .  A
H138        C163   1.080       .  S
N139        N160   1.313       .  A
N140        N158   1.320       .  A
N140        N145   1.320       .  A
C141        C761   1.473       .  S
C141        C169   1.490       .  S
C141        N145   1.334       .  A
N142        C157   1.334       .  A
N142       Co164   2.031       .  S
C143        C146   1.433       .  S
C143        N171   1.337       .  A
C143        H177   1.080       .  S
C146        C745   1.394       .  S
C146        N167   1.335       .  A
N147        N153   1.319       .  A
N148        C174   1.335       .  A
N148        N150   1.317       .  A
N148       Co164   2.036       .  S
N149        C163   1.338       .  A
N150        N178   1.342       .  A
N150       Co168   2.193       .  S
H151        C174   1.082       .  S
H152        C169   1.081       .  S
N154       Co168   2.182   1_655  S
N155        N167   1.315       .  A
N155        N171   1.315       .  A
N155       Co164   2.061       .  S
C156        C747   1.397       .  S
C156        C170   1.438       .  S
C156        N160   1.326       .  A
C157        C176   1.434       .  S
C157        H161   1.082       .  S
N158        C169   1.364       .  A
N158       Co168   2.180   1_655  S
C162        C806   1.471       .  S
C162        C174   1.435       .  S
C162        N178   1.375       .  A
Co164      Cl175   2.456       .  S
N165        C176   1.372       .  A
C166        C743   1.397       .  S
Co168      Cl175   2.400       .  S
C176        C930   1.466       .  S
C179        C737   1.395       .  S
C179        C216   1.432       .  S
C179        N197   1.336       .  A
N180        N197   1.316       .  A
N180        N202   1.315       .  A
N180       Co217   2.065       .  S
C181        C219   1.438       .  S
C181        N206   1.341       .  A
C181        H226   1.076       .  S
H182        C223   1.077       .  S
C183        C187   1.489       .  S
C183        N207   1.365       .  A
C183        H212   1.080       .  S
Co184       N202   2.038   1_655  S
Co184       N192   2.045       .  S
Co184       N224   2.041   1_655  S
Co184       N200   2.043       .  S
Co184      Cl228   2.456   1_655  S
N185        C223   1.340       .  A
N185        N192   1.319       .  A
N185       Co186   2.071       .  S
Co186       N189   2.047       .  S
Co186       N206   2.069       .  S
Co186       N193   2.049       .  S
Co186      Cl228   2.482   1_655  S
C187        C908   1.473       .  S
C187        N225   1.333       .  A
N188        N195   1.317       .  A
N188        N218   1.340       .  A
N188       Co221   2.188       .  S
N189        N207   1.320       .  A
N189        N225   1.320       .  A
N190        C219   1.327       .  A
N190        N200   1.313       .  A
H191        C216   1.080       .  S
N192        N213   1.314       .  A
N193        N211   1.320       .  A
N193        N198   1.320       .  A
C194        C766   1.473       .  S
C194        C222   1.491       .  S
C194        N198   1.333       .  A
N195        C210   1.335       .  A
N195       Co217   2.035       .  S
C196        C199   1.435       .  S
C196        N224   1.337       .  A
C196        H230   1.080       .  S
C199        C741   1.394       .  S
C199        N220   1.337       .  A
N200        N206   1.318       .  A
N201        C227   1.335       .  A
N201        N203   1.316       .  A
N201       Co217   2.033       .  S
N202        C216   1.337       .  A
N203        N231   1.342       .  A
N203       Co221   2.193       .  S
H204        C227   1.082       .  S
H205        C222   1.080       .  S
N207       Co221   2.184   1_655  S
N208        N220   1.316       .  A
N208        N224   1.315       .  A
N208       Co217   2.064       .  S
C209        C736   1.396       .  S
C209        C223   1.437       .  S
C209        N213   1.327       .  A
C210        C229   1.435       .  S
C210        H214   1.081       .  S
N211        C222   1.365       .  A
N211       Co221   2.183   1_655  S
C215        C784   1.471       .  S
C215        C227   1.434       .  S
C215        N231   1.375       .  A
Co217      Cl228   2.457       .  S
N218        C229   1.372       .  A
C219        C740   1.396       .  S
Co221      Cl228   2.397       .  S
C229        C949   1.467       .  S
C232        C844   1.472       .  S
C232        C269   1.491       .  S
C232        N250   1.333       .  A
N233        N250   1.320       .  A
N233        N255   1.319       .  A
N233       Co270   2.047       .  S
C234        C272   1.435       .  S
C234        N259   1.335       .  A
C234        H279   1.082       .  S
H235        C276   1.082       .  S
C236        C240   1.431       .  S
C236        N260   1.335       .  A
C236        H265   1.080       .  S
Co237       N255   2.180   1_556  S
Co237       N245   2.191       .  S
Co237       N277   2.178   1_556  S
Co237       N253   2.185       .  S
Co237      Cl281   2.400   1_556  S
N238        C276   1.334       .  A
N238        N245   1.317       .  A
N238       Co239   2.034       .  S
Co239       N242   2.064       .  S
Co239       N259   2.034       .  S
Co239       N246   2.067       .  S
Co239      Cl281   2.454   1_556  S
C240        C750   1.394       .  S
C240        N278   1.336       .  A
N241        N248   1.319       .  A
N241        N271   1.315       .  A
N241       Co274   2.045       .  S
N242        N260   1.315       .  A
N242        N278   1.317       .  A
N243        C272   1.372       .  A
N243        N253   1.340       .  A
H244        C269   1.081       .  S
N245        N266   1.341       .  A
N246        N264   1.316       .  A
N246        N251   1.316       .  A
C247        C734   1.396       .  S
C247        C275   1.433       .  S
C247        N251   1.335       .  A
N248        C263   1.338       .  A
N248       Co270   2.071       .  S
C249        C252   1.487       .  S
C249        N277   1.363       .  A
C249        H283   1.080       .  S
C252        C786   1.469       .  S
C252        N273   1.334       .  A
N253        N259   1.316       .  A
N254        C280   1.340       .  A
N254        N256   1.318       .  A
N254       Co270   2.065       .  S
N255        C269   1.364       .  A
N256        N284   1.313       .  A
N256       Co274   2.043       .  S
H257        C280   1.077       .  S
H258        C275   1.079       .  S
N260       Co274   2.037   1_556  S
N261        N273   1.320       .  A
N261        N277   1.320       .  A
N261       Co270   2.049       .  S
C262        C836   1.469       .  S
C262        C276   1.435       .  S
C262        N266   1.374       .  A
C263        C282   1.437       .  S
C263        H267   1.076       .  S
N264        C275   1.338       .  A
N264       Co274   2.042   1_556  S
C268        C742   1.397       .  S
C268        C280   1.436       .  S
C268        N284   1.326       .  A
Co270      Cl281   2.481       .  S
N271        C282   1.328       .  A
C272        C804   1.467       .  S
Co274      Cl281   2.459       .  S
C282        C731   1.395       .  S
C285        C931   1.468       .  S
C285        C322   1.488       .  S
C285        N303   1.332       .  A
N286        N303   1.319       .  A
N286        N308   1.320       .  A
N286       Co323   2.043       .  S
C287        C325   1.436       .  S
C287        N312   1.335       .  A
C287        H332   1.082       .  S
H288        C329   1.081       .  S
C289        C293   1.432       .  S
C289        N313   1.337       .  A
C289        H318   1.080       .  S
Co290       N308   2.178       .  S
Co290       N298   2.194   1_455  S
Co290       N330   2.186       .  S
Co290       N306   2.191   1_455  S
Co290      Cl334   2.397       .  S
N291        C329   1.337       .  A
N291        N298   1.317       .  A
N291       Co292   2.039       .  S
Co292       N295   2.065       .  S
Co292       N312   2.036       .  S
Co292       N299   2.065       .  S
Co292      Cl334   2.455   1_655  S
C293        C728   1.395       .  S
C293        N331   1.335       .  A
N294        N301   1.319       .  A
N294        N324   1.314       .  A
N294       Co327   2.045       .  S
N295        N313   1.315       .  A
N295        N331   1.315       .  A
N296        C325   1.375       .  A
N296        N306   1.342       .  A
H297        C322   1.080       .  S
N298        N319   1.342       .  A
N299        N317   1.316       .  A
N299        N304   1.315       .  A
C300        C726   1.394       .  S
C300        C328   1.435       .  S
C300        N304   1.337       .  A
N301        C316   1.340       .  A
N301       Co323   2.071       .  S
C302        C305   1.492       .  S
C302        N330   1.365       .  A
C302        H336   1.080       .  S
C305        C788   1.474       .  S
C305        N326   1.333       .  A
N306        N312   1.316       .  A
N307        C333   1.340       .  A
N307        N309   1.318       .  A
N307       Co323   2.067       .  S
N308        C322   1.363       .  A
N309        N337   1.313       .  A
N309       Co327   2.043       .  S
H310        C333   1.076       .  S
H311        C328   1.080       .  S
N313       Co327   2.037   1_655  S
N314        N326   1.320       .  A
N314        N330   1.320       .  A
N314       Co323   2.048       .  S
C315        C913   1.473       .  S
C315        C329   1.437       .  S
C315        N319   1.374       .  A
C316        C335   1.437       .  S
C316        H320   1.077       .  S
N317        C328   1.337       .  A
N317       Co327   2.042   1_655  S
C321        C723   1.396       .  S
C321        C333   1.437       .  S
C321        N337   1.327       .  A
Co323      Cl334   2.485       .  S
N324        C335   1.327       .  A
C325        C769   1.472       .  S
Co327      Cl334   2.456       .  S
C335        C730   1.396       .  S
C338        C951   1.471       .  S
C338        C375   1.491       .  S
C338        N356   1.332       .  A
N339        N356   1.319       .  A
N339        N361   1.320       .  A
N339       Co376   2.042       .  S
C340        C378   1.435       .  S
C340        N365   1.335       .  A
C340        H385   1.082       .  S
H341        C382   1.082       .  S
C342        C346   1.433       .  S
C342        N366   1.337       .  A
C342        H371   1.080       .  S
Co343       N361   2.185       .  S
Co343       N351   2.197   1_565  S
Co343       N383   2.186       .  S
Co343       N359   2.196   1_565  S
Co343      Cl387   2.398       .  S
N344        C382   1.336       .  A
N344        N351   1.317       .  A
N344       Co345   2.036       .  S
Co345       N348   2.066       .  S
Co345       N365   2.033       .  S
Co345       N352   2.067       .  S
Co345      Cl387   2.458   1_545  S
C346        C729   1.395       .  S
C346        N384   1.336       .  A
N347        N354   1.318       .  A
N347        N377   1.314       .  A
N347       Co380   2.045       .  S
N348        N366   1.315       .  A
N348        N384   1.316       .  A
N349        C378   1.375       .  A
N349        N359   1.342       .  A
H350        C375   1.081       .  S
N351        N372   1.342       .  A
N352        N370   1.315       .  A
N352        N357   1.318       .  A
C353        C721   1.394       .  S
C353        C381   1.432       .  S
C353        N357   1.337       .  A
N354        C369   1.340       .  A
N354       Co376   2.068       .  S
C355        C358   1.492       .  S
C355        N383   1.365       .  A
C355        H389   1.081       .  S
C358        C842   1.473       .  S
C358        N379   1.333       .  A
N359        N365   1.316       .  A
N360        C386   1.338       .  A
N360        N362   1.318       .  A
N360       Co376   2.067       .  S
N361        C375   1.365       .  A
N362        N390   1.315       .  A
N362       Co380   2.044       .  S
H363        C386   1.076       .  S
H364        C381   1.080       .  S
N366       Co380   2.037   1_545  S
N367        N379   1.320       .  A
N367        N383   1.320       .  A
N367       Co376   2.047       .  S
C368        C934   1.474       .  S
C368        C382   1.436       .  S
C368        N372   1.376       .  A
C369        C388   1.439       .  S
C369        H373   1.077       .  S
N370        C381   1.335       .  A
N370       Co380   2.038   1_545  S
C374        C732   1.396       .  S
C374        C386   1.436       .  S
C374        N390   1.328       .  A
Co376      Cl387   2.478       .  S
N377        C388   1.328       .  A
C378        C877   1.472       .  S
Co380      Cl387   2.459       .  S
C388        C738   1.395       .  S
C391        C722   1.395       .  S
C391        C428   1.431       .  S
C391        N409   1.336       .  A
N392        N409   1.317       .  A
N392        N414   1.316       .  A
N392       Co429   2.067       .  S
C393        C431   1.437       .  S
C393        N418   1.341       .  A
C393        H438   1.077       .  S
H394        C435   1.077       .  S
C395        C399   1.487       .  S
C395        N419   1.363       .  A
C395        H424   1.080       .  S
Co396       N414   2.038   1_556  S
Co396       N404   2.044       .  S
Co396       N436   2.040   1_556  S
Co396       N412   2.045       .  S
Co396      Cl440   2.458       .  S
N397        C435   1.337       .  A
N397        N404   1.319       .  A
N397       Co398   2.068       .  S
Co398       N401   2.051       .  S
Co398       N418   2.068       .  S
Co398       N405   2.048       .  S
Co398      Cl440   2.481       .  S
C399        C862   1.470       .  S
C399        N437   1.334       .  A
N400        N407   1.316       .  A
N400        N430   1.340       .  A
N400       Co433   2.185       .  S
N401        N419   1.320       .  A
N401        N437   1.320       .  A
N402        C431   1.326       .  A
N402        N412   1.313       .  A
H403        C428   1.080       .  S
N404        N425   1.315       .  A
N405        N423   1.320       .  A
N405        N410   1.320       .  A
C406        C807   1.468       .  S
C406        C434   1.486       .  S
C406        N410   1.333       .  A
N407        C422   1.334       .  A
N407       Co429   2.032       .  S
C408        C411   1.432       .  S
C408        N436   1.337       .  A
C408        H442   1.079       .  S
C411        C724   1.395       .  S
C411        N432   1.335       .  A
N412        N418   1.318       .  A
N413        C439   1.335       .  A
N413        N415   1.316       .  A
N413       Co429   2.035       .  S
N414        C428   1.335       .  A
N415        N443   1.340       .  A
N415       Co433   2.185       .  S
H416        C439   1.082       .  S
H417        C434   1.080       .  S
N419       Co433   2.175   1_556  S
N420        N432   1.315       .  A
N420        N436   1.316       .  A
N420       Co429   2.065       .  S
C421        C752   1.397       .  S
C421        C435   1.435       .  S
C421        N425   1.327       .  A
C422        C441   1.435       .  S
C422        H426   1.081       .  S
N423        C434   1.363       .  A
N423       Co433   2.174   1_556  S
C427        C789   1.468       .  S
C427        C439   1.435       .  S
C427        N443   1.372       .  A
Co429      Cl440   2.455   1_554  S
N430        C441   1.372       .  A
C431        C746   1.396       .  S
Co433      Cl440   2.399   1_554  S
C441        C879   1.466       .  S
C444        C915   1.470       .  S
C444        C481   1.488       .  S
C444        N462   1.333       .  A
N445        N462   1.320       .  A
N445        N467   1.320       .  A
N445       Co482   2.045       .  S
C446        C484   1.435       .  S
C446        N471   1.334       .  A
C446        H491   1.082       .  S
H447        C488   1.081       .  S
C448        C452   1.432       .  S
C448        N472   1.337       .  A
C448        H477   1.080       .  S
Co449       N467   2.179   1_565  S
Co449       N457   2.191       .  S
Co449       N489   2.185   1_565  S
Co449       N465   2.191       .  S
Co449      Cl493   2.398       .  S
N450        C488   1.335       .  A
N450        N457   1.316       .  A
N450       Co451   2.034       .  S
Co451       N454   2.068       .  S
Co451       N471   2.032       .  S
Co451       N458   2.065       .  S
Co451      Cl493   2.455       .  S
C452        C735   1.395       .  S
C452        N490   1.336       .  A
N453        N460   1.318       .  A
N453        N483   1.314       .  A
N453       Co486   2.044   1_545  S
N454        N472   1.315       .  A
N454        N490   1.316       .  A
N455        C484   1.374       .  A
N455        N465   1.341       .  A
H456        C481   1.080       .  S
N457        N478   1.341       .  A
N458        N476   1.316       .  A
N458        N463   1.318       .  A
C459        C720   1.395       .  S
C459        C487   1.432       .  S
C459        N463   1.337       .  A
N460        C475   1.341       .  A
N460       Co482   2.070       .  S
C461        C464   1.492       .  S
C461        N489   1.365       .  A
C461        H495   1.081       .  S
C464        C874   1.476       .  S
C464        N485   1.334       .  A
N465        N471   1.316       .  A
N466        C492   1.338       .  A
N466        N468   1.318       .  A
N466       Co482   2.068       .  S
N467        C481   1.364       .  A
N468        N496   1.315       .  A
N468       Co486   2.044   1_545  S
H469        C492   1.076       .  S
H470        C487   1.080       .  S
N472       Co486   2.037       .  S
N473        N485   1.321       .  A
N473        N489   1.320       .  A
N473       Co482   2.051       .  S
C474        C906   1.469       .  S
C474        C488   1.435       .  S
C474        N478   1.373       .  A
C475        C494   1.439       .  S
C475        H479   1.077       .  S
N476        C487   1.335       .  A
N476       Co486   2.039       .  S
C480        C718   1.395       .  S
C480        C492   1.437       .  S
C480        N496   1.327       .  A
Co482      Cl493   2.483   1_545  S
N483        C494   1.327       .  A
C484        C838   1.468       .  S
Co486      Cl493   2.457       .  S
C494        C727   1.395       .  S
C497        C875   1.469       .  S
C497        C534   1.487       .  S
C497        N515   1.333       .  A
N498        N515   1.320       .  A
N498        N520   1.320       .  A
N498       Co535   2.049       .  S
C499        C537   1.435       .  S
C499        N524   1.335       .  A
C499        H544   1.082       .  S
H500        C541   1.081       .  S
C501        C505   1.431       .  S
C501        N525   1.335       .  A
C501        H530   1.080       .  S
Co502       N520   2.174   1_556  S
Co502       N510   2.184       .  S
Co502       N542   2.175   1_556  S
Co502       N518   2.183       .  S
Co502      Cl546   2.400   1_556  S
N503        C541   1.335       .  A
N503        N510   1.317       .  A
N503       Co504   2.037       .  S
Co504       N507   2.064       .  S
Co504       N524   2.034       .  S
Co504       N511   2.068       .  S
Co504      Cl546   2.457   1_556  S
C505        C715   1.395       .  S
C505        N543   1.335       .  A
N506        N513   1.319       .  A
N506        N536   1.315       .  A
N506       Co539   2.045       .  S
N507        N525   1.316       .  A
N507        N543   1.317       .  A
N508        C537   1.372       .  A
N508        N518   1.340       .  A
H509        C534   1.080       .  S
N510        N531   1.340       .  A
N511        N529   1.316       .  A
N511        N516   1.316       .  A
C512        C744   1.396       .  S
C512        C540   1.433       .  S
C512        N516   1.336       .  A
N513        C528   1.338       .  A
N513       Co535   2.070       .  S
C514        C517   1.486       .  S
C514        N542   1.363       .  A
C514        H548   1.080       .  S
C517        C772   1.467       .  S
C517        N538   1.333       .  A
N518        N524   1.316       .  A
N519        C545   1.340       .  A
N519        N521   1.319       .  A
N519       Co535   2.066       .  S
N520        C534   1.363       .  A
N521        N549   1.313       .  A
N521       Co539   2.044       .  S
H522        C545   1.077       .  S
H523        C540   1.079       .  S
N525       Co539   2.036   1_556  S
N526        N538   1.320       .  A
N526        N542   1.320       .  A
N526       Co535   2.049       .  S
C527        C857   1.467       .  S
C527        C541   1.436       .  S
C527        N531   1.372       .  A
C528        C547   1.435       .  S
C528        H532   1.076       .  S
N529        C540   1.337       .  A
N529       Co539   2.041   1_556  S
C533        C725   1.397       .  S
C533        C545   1.436       .  S
C533        N549   1.326       .  A
Co535      Cl546   2.478       .  S
N536        C547   1.327       .  A
C537        C764   1.466       .  S
Co539      Cl546   2.459       .  S
C547        C717   1.396       .  S
C550        C946   1.469       .  S
C550        C587   1.487       .  S
C550        N568   1.333       .  A
N551        N568   1.320       .  A
N551        N573   1.321       .  A
N551       Co588   2.047       .  S
C552        C590   1.436       .  S
C552        N577   1.335       .  A
C552        H597   1.082       .  S
H553        C594   1.081       .  S
C554        C558   1.434       .  S
C554        N578   1.338       .  A
C554        H583   1.080       .  S
Co555       N573   2.178       .  S
Co555       N563   2.190   1_455  S
Co555       N595   2.182       .  S
Co555       N571   2.190   1_455  S
Co555      Cl599   2.399       .  S
N556        C594   1.336       .  A
N556        N563   1.316       .  A
N556       Co557   2.035       .  S
Co557       N560   2.066       .  S
Co557       N577   2.037       .  S
Co557       N564   2.063       .  S
Co557      Cl599   2.456   1_655  S
C558        C713   1.394       .  S
C558        N596   1.336       .  A
N559        N566   1.318       .  A
N559        N589   1.313       .  A
N559       Co592   2.041       .  S
N560        N578   1.315       .  A
N560        N596   1.315       .  A
N561        C590   1.374       .  A
N561        N571   1.342       .  A
H562        C587   1.080       .  S
N563        N584   1.341       .  A
N564        N582   1.315       .  A
N564        N569   1.315       .  A
C565        C712   1.394       .  S
C565        C593   1.433       .  S
C565        N569   1.336       .  A
N566        C581   1.341       .  A
N566       Co588   2.071       .  S
C567        C570   1.491       .  S
C567        N595   1.365       .  A
C567        H601   1.080       .  S
C570        C801   1.473       .  S
C570        N591   1.333       .  A
N571        N577   1.316       .  A
N572        C598   1.341       .  A
N572        N574   1.319       .  A
N572       Co588   2.072       .  S
N573        C587   1.363       .  A
N574        N602   1.314       .  A
N574       Co592   2.044       .  S
H575        C598   1.076       .  S
H576        C593   1.080       .  S
N578       Co592   2.041   1_655  S
N579        N591   1.320       .  A
N579        N595   1.320       .  A
N579       Co588   2.049       .  S
C580        C901   1.470       .  S
C580        C594   1.436       .  S
C580        N584   1.373       .  A
C581        C600   1.437       .  S
C581        H585   1.077       .  S
N582        C593   1.337       .  A
N582       Co592   2.039   1_655  S
C586        C733   1.396       .  S
C586        C598   1.438       .  S
C586        N602   1.327       .  A
Co588      Cl599   2.479       .  S
N589        C600   1.326       .  A
C590        C757   1.471       .  S
Co592      Cl599   2.459       .  S
C600        C755   1.397       .  S
C603        C748   1.394       .  S
C603        C640   1.434       .  S
C603        N621   1.335       .  A
N604        N621   1.315       .  A
N604        N626   1.316       .  A
N604       Co641   2.067       .  S
C605        C643   1.438       .  S
C605        N630   1.339       .  A
C605        H650   1.076       .  S
H606        C647   1.077       .  S
C607        C611   1.488       .  S
C607        N631   1.364       .  A
C607        H636   1.080       .  S
Co608       N626   2.042   1_565  S
Co608       N616   2.040       .  S
Co608       N648   2.035   1_565  S
Co608       N624   2.047       .  S
Co608      Cl652   2.459       .  S
N609        C647   1.340       .  A
N609        N616   1.318       .  A
N609       Co610   2.068       .  S
Co610       N613   2.047       .  S
Co610       N630   2.071       .  S
Co610       N617   2.047       .  S
Co610      Cl652   2.478       .  S
C611        C903   1.470       .  S
C611        N649   1.333       .  A
N612        N619   1.316       .  A
N612        N642   1.341       .  A
N612       Co645   2.187   1_545  S
N613        N631   1.321       .  A
N613        N649   1.320       .  A
N614        C643   1.328       .  A
N614        N624   1.315       .  A
H615        C640   1.079       .  S
N616        N637   1.313       .  A
N617        N635   1.320       .  A
N617        N622   1.320       .  A
C618        C830   1.470       .  S
C618        C646   1.490       .  S
C618        N622   1.333       .  A
N619        C634   1.335       .  A
N619       Co641   2.033       .  S
C620        C623   1.432       .  S
C620        N648   1.334       .  A
C620        H654   1.080       .  S
C623        C716   1.394       .  S
C623        N644   1.338       .  A
N624        N630   1.319       .  A
N625        C651   1.334       .  A
N625        N627   1.316       .  A
N625       Co641   2.031       .  S
N626        C640   1.338       .  A
N627        N655   1.342       .  A
N627       Co645   2.196   1_545  S
H628        C651   1.082       .  S
H629        C646   1.081       .  S
N631       Co645   2.182       .  S
N632        N644   1.318       .  A
N632        N648   1.314       .  A
N632       Co641   2.065       .  S
C633        C714   1.396       .  S
C633        C647   1.438       .  S
C633        N637   1.326       .  A
C634        C653   1.435       .  S
C634        H638   1.082       .  S
N635        C646   1.364       .  A
N635       Co645   2.178       .  S
C639        C856   1.471       .  S
C639        C651   1.434       .  S
C639        N655   1.376       .  A
Co641      Cl652   2.458   1_545  S
N642        C653   1.373       .  A
C643        C709   1.395       .  S
Co645      Cl652   2.398       .  S
C653        C912   1.468       .  S
C656        C719   1.395       .  S
C656        C693   1.432       .  S
C656        N674   1.336       .  A
N657        N674   1.317       .  A
N657        N679   1.316       .  A
N657       Co694   2.065       .  S
C658        C696   1.437       .  S
C658        N683   1.340       .  A
C658        H703   1.077       .  S
H659        C700   1.076       .  S
C660        C664   1.490       .  S
C660        N684   1.364       .  A
C660        H689   1.081       .  S
Co661       N679   2.039   1_556  S
Co661       N669   2.044       .  S
Co661       N701   2.040   1_556  S
Co661       N677   2.045       .  S
Co661      Cl705   2.461       .  S
N662        C700   1.338       .  A
N662        N669   1.319       .  A
N662       Co663   2.067       .  S
Co663       N666   2.050       .  S
Co663       N683   2.069       .  S
Co663       N670   2.046       .  S
Co663      Cl705   2.480       .  S
C664        C831   1.471       .  S
C664        N702   1.334       .  A
N665        N672   1.316       .  A
N665        N695   1.341       .  A
N665       Co698   2.189       .  S
N666        N684   1.320       .  A
N666        N702   1.320       .  A
N667        C696   1.327       .  A
N667        N677   1.314       .  A
H668        C693   1.080       .  S
N669        N690   1.315       .  A
N670        N688   1.320       .  A
N670        N675   1.319       .  A
C671        C760   1.467       .  S
C671        C699   1.487       .  S
C671        N675   1.333       .  A
N672        C687   1.334       .  A
N672       Co694   2.031       .  S
C673        C676   1.432       .  S
C673        N701   1.337       .  A
C673        H707   1.079       .  S
C676        C739   1.396       .  S
C676        N697   1.335       .  A
N677        N683   1.318       .  A
N678        C704   1.335       .  A
N678        N680   1.316       .  A
N678       Co694   2.035       .  S
N679        C693   1.335       .  A
N680        N708   1.340       .  A
N680       Co698   2.186       .  S
H681        C704   1.082       .  S
H682        C699   1.080       .  S
N684       Co698   2.179   1_556  S
N685        N697   1.315       .  A
N685        N701   1.316       .  A
N685       Co694   2.066       .  S
C686        C710   1.396       .  S
C686        C700   1.435       .  S
C686        N690   1.327       .  A
C687        C706   1.434       .  S
C687        H691   1.082       .  S
N688        C699   1.363       .  A
N688       Co698   2.175   1_556  S
C692        C768   1.468       .  S
C692        C704   1.435       .  S
C692        N708   1.373       .  A
Co694      Cl705   2.453   1_554  S
N695        C706   1.374       .  A
C696        C711   1.396       .  S
Co698      Cl705   2.402   1_554  S
C706        C839   1.468       .  S
C709        C710   1.174       .  T
C711        C712   1.175       .  T
C713        C714   1.175       .  T
C715        C716   1.174       .  T
C717        C718   1.174       .  T
C719        C720   1.175       .  T
C721        C722   1.175       .  T
C723        C724   1.175       .  T
C725        C726   1.175       .  T
C727        C728   1.175       .  T
C729        C730   1.175       .  T
C731        C732   1.174       .  T
C733        C734   1.175       .  T
C735        C736   1.175       .  T
C737        C738   1.175       .  T
C739        C740   1.175       .  T
C741        C742   1.175       .  T
C743        C744   1.175       .  T
C745        C746   1.175       .  T
C747        C748   1.175       .  T
C749        C750   1.174       .  T
C751        C752   1.174       .  T
C753        C754   1.175       .  T
C755        C756   1.175       .  T
C757        C758   1.229       .  T
C759        C760   1.226       .  T
C761        C762   1.230       .  T
C763        C764   1.225       .  T
C765        C766   1.230       .  T
C767        C768   1.226       .  T
C769        C770   1.229       .  T
C771        C772   1.226       .  T
C773        C774   1.407       .  A
C773        C778   1.403   1_554  A
C773        H779   1.084       .  S
C774        C775   1.412       .  A
C775        C776   1.416   1_554  A
C775        H780   1.080       .  S
C776        C777   1.411       .  A
C776        H781   1.081       .  S
C777        C778   1.407       .  A
C778        H782   1.084       .  S
C783        C784   1.229       .  T
C785        C786   1.227       .  T
C787        C788   1.230       .  T
C789        C790   1.226       .  T
C791        C792   1.413       .  A
C791        C796   1.404   1_455  A
C791        H797   1.078       .  S
C792        C793   1.414       .  A
C793        C794   1.404   1_455  A
C793        H798   1.078       .  S
C794        C795   1.412       .  A
C794        H799   1.078       .  S
C795        C796   1.414       .  A
C796        H800   1.078       .  S
C801        C802   1.230       .  T
C803        C804   1.226       .  T
C805        C806   1.229       .  T
C807        C808   1.226       .  T
C809        C810   1.406       .  A
C809        C814   1.402   1_556  A
C809        H815   1.084       .  S
C810        C811   1.411       .  A
C811        C812   1.417   1_556  A
C811        H816   1.082       .  S
C812        C813   1.411       .  A
C812        H817   1.082       .  S
C813        C814   1.405       .  A
C814        H818   1.084       .  S
C819        C820   1.414       .  A
C819        C824   1.404   1_455  A
C819        H825   1.078       .  S
C820        C821   1.413       .  A
C821        C822   1.404   1_455  A
C821        H826   1.078       .  S
C822        C823   1.414       .  A
C822        H827   1.078       .  S
C823        C824   1.413       .  A
C824        H828   1.078       .  S
C829        C830   1.228       .  T
C831        C832   1.229       .  T
C833        C834   1.228       .  T
C835        C836   1.228       .  T
C837        C838   1.227       .  T
C839        C840   1.227       .  T
C841        C842   1.230       .  T
C843        C844   1.229       .  T
C845        C846   1.413       .  A
C845        C850   1.404   1_554  A
C845        H851   1.078       .  S
C846        C847   1.414       .  A
C847        C848   1.404   1_554  A
C847        H852   1.078       .  S
C848        C849   1.413       .  A
C848        H853   1.078       .  S
C849        C850   1.413       .  A
C850        H854   1.078       .  S
C855        C856   1.229       .  T
C857        C858   1.226       .  T
C859        C860   1.231       .  T
C861        C862   1.227       .  T
C863        C864   1.414       .  A
C863        C868   1.404   1_545  A
C863        H869   1.078       .  S
C864        C865   1.413       .  A
C865        C866   1.404   1_545  A
C865        H870   1.078       .  S
C866        C867   1.413       .  A
C866        H871   1.078       .  S
C867        C868   1.413       .  A
C868        H872   1.078       .  S
C873        C874   1.231       .  T
C875        C876   1.227       .  T
C877        C878   1.230       .  T
C879        C880   1.225       .  T
C881        C882   1.414       .  A
C881        C886   1.404   1_545  A
C881        H887   1.078       .  S
C882        C883   1.414       .  A
C883        C884   1.404   1_545  A
C883        H888   1.078       .  S
C884        C885   1.413       .  A
C884        H889   1.078       .  S
C885        C886   1.413       .  A
C886        H890   1.078       .  S
C891        C892   1.412       .  A
C891        C896   1.416   1_554  A
C891        H897   1.079       .  S
C892        C893   1.408       .  A
C893        C894   1.404   1_554  A
C893        H898   1.084       .  S
C894        C895   1.408       .  A
C894        H899   1.084       .  S
C895        C896   1.411       .  A
C896        H900   1.080       .  S
C901        C902   1.228       .  T
C903        C904   1.227       .  T
C905        C906   1.227       .  T
C907        C908   1.229       .  T
C909        C910   1.228       .  T
C911        C912   1.227       .  T
C913        C914   1.229       .  T
C915        C916   1.227       .  T
C917        C918   1.407       .  A
C917        C922   1.404   1_545  A
C917        H923   1.084       .  S
C918        C919   1.413       .  A
C919        C920   1.417   1_545  A
C919        H924   1.080       .  S
C920        C921   1.412       .  A
C920        H925   1.081       .  S
C921        C922   1.408       .  A
C922        H926   1.084       .  S
C927        C928   1.229       .  T
C929        C930   1.225       .  T
C931        C932   1.226       .  T
C933        C934   1.230       .  T
C935        C936   1.407       .  A
C935        C940   1.403   1_455  A
C935        H941   1.084       .  S
C936        C937   1.412       .  A
C937        C938   1.416   1_455  A
C937        H942   1.080       .  S
C938        C939   1.411       .  A
C938        H943   1.081       .  S
C939        C940   1.408       .  A
C940        H944   1.084       .  S
C945        C946   1.227       .  T
C947        C948   1.230       .  T
C949        C950   1.226       .  T
C951        C952   1.229       .  T
C953        C954   1.413       .  A
C953        C958   1.404   1_565  A
C953        H959   1.078       .  S
C954        C955   1.414       .  A
C955        C956   1.404   1_565  A
C955        H960   1.078       .  S
C956        C957   1.413       .  A
C956        H961   1.078       .  S
C957        C958   1.414       .  A
C958        H962   1.078       .  S
C963        C964   1.412       .  A
C963        C968   1.416   1_455  A
C963        H969   1.080       .  S
C964        C965   1.407       .  A
C965        C966   1.403   1_455  A
C965        H970   1.084       .  S
C966        C967   1.407       .  A
C966        H971   1.084       .  S
C967        C968   1.411       .  A
C968        H972   1.081       .  S
