geometry optimzed in LAMMPS
_audit_creation_date              2020-11-30 
_audit_creation_method            'lammps2cif' 
_symmetry_space_group_name_H-M    'P1' 
_symmetry_Int_Tables_number       1 
_symmetry_cell_setting            triclinic 
loop_ 
_symmetry_equiv_pos_as_xyz 
  x,y,z 
_cell_length_a                    36.64071019319789 
_cell_length_b                    36.68195231365126 
_cell_length_c                    36.651961497917604 
_cell_angle_alpha                 90.00794069649635 
_cell_angle_beta                  89.95811660931605 
_cell_angle_gamma                 90.09176358730424 
loop_ 
_atom_site_label 
_atom_site_type_symbol 
_atom_site_fract_x 
_atom_site_fract_y 
_atom_site_fract_z 
_atom_site_charge 
C1          C  0.13374061  0.89133577  0.53412203     0.02210
C2          C  0.10819350  0.86263545  0.53432173     0.02210
C3          C  0.09311692  0.85018685  0.50107726     0.02210
C4          C  0.11420373  0.85594604  0.46862823     0.02210
C5          C  0.13659746  0.88842609  0.46827034     0.02210
C6          C  0.14237140  0.90807215  0.50097028     0.02210
C7          C  0.13245751  0.08546952  0.46522633     0.02210
C8          C  0.14140206  0.06660098  0.49756268     0.02210
C9          C  0.13381700  0.08394927  0.53120571     0.02210
C10         C  0.10688845  0.11181992  0.53234396     0.02210
C11         C  0.08873730  0.12180184  0.49989228     0.02210
C12         C  0.10551510  0.11305962  0.46636951     0.02210
C13         C  0.91335348  0.11517326  0.53371674     0.02210
C14         C  0.92946569  0.12743426  0.50113430     0.02210
C15         C  0.90993839  0.12032934  0.46802414     0.02210
C16         C  0.88936066  0.08664618  0.46686571     0.02210
C17         C  0.88405702  0.06626089  0.49944389     0.02210
C18         C  0.88995672  0.08427560  0.53313096     0.02210
C19         C  0.91410481  0.86348078  0.46493289     0.02210
C20         C  0.93355702  0.85731748  0.49769001     0.02210
C21         C  0.91571174  0.86532191  0.53095562     0.02210
C22         C  0.88651112  0.89062476  0.53085780     0.02210
C23         C  0.87579546  0.90717898  0.49776573     0.02210
C24         C  0.88477499  0.88872818  0.46486750     0.02210
C25         C  0.47995514  0.11422785  0.09665889     0.02210
C26         C  0.51329089  0.12141944  0.07883368     0.02210
C27         C  0.54604323  0.11178330  0.09705379     0.02210
C28         C  0.54463551  0.08521486  0.12536237     0.02210
C29         C  0.51076787  0.06886514  0.13424916     0.02210
C30         C  0.47866683  0.08763625  0.12464246     0.02210
C31         C  0.47588460  0.11056639  0.90317028     0.02210
C32         C  0.50876427  0.12096230  0.92013337     0.02210
C33         C  0.54176083  0.11274959  0.90204596     0.02210
C34         C  0.54232687  0.08541092  0.87459736     0.02210
C35         C  0.50980203  0.06610142  0.86720963     0.02210
C36         C  0.47621880  0.08268918  0.87633903     0.02210
C37         C  0.47543803  0.89152277  0.12334706     0.02210
C38         C  0.50823833  0.91030527  0.13064182     0.02210
C39         C  0.54162227  0.89229605  0.12323947     0.02210
C40         C  0.54168073  0.86075637  0.09964605     0.02210
C41         C  0.50925142  0.85532753  0.07884482     0.02210
C42         C  0.47589336  0.86394184  0.09625232     0.02210
C43         C  0.47919361  0.89257640  0.87259436     0.02210
C44         C  0.51268814  0.90802278  0.86183058     0.02210
C45         C  0.54496892  0.88908949  0.87091364     0.02210
C46         C  0.54437366  0.86338552  0.89972300     0.02210
C47         C  0.51148123  0.85750421  0.91904761     0.02210
C48         C  0.47839633  0.86736912  0.90180033     0.02210
C49         C  0.14104240  0.52322070  0.90110619     0.02210
C50         C  0.11359220  0.52409003  0.87399625     0.02210
C51         C  0.09460883  0.49120021  0.86608067     0.02210
C52         C  0.11623571  0.45898914  0.86764538     0.02210
C53         C  0.14154524  0.45763252  0.89771302     0.02210
C54         C  0.14895870  0.48978967  0.91775715     0.02210
C55         C  0.13488974  0.52009136  0.09262524     0.02210
C56         C  0.14341112  0.48633330  0.07613062     0.02210
C57         C  0.13457177  0.45405566  0.09537372     0.02210
C58         C  0.10597125  0.45520753  0.12170095     0.02210
C59         C  0.08871589  0.48895644  0.12916999     0.02210
C60         C  0.10730728  0.52144166  0.11976643     0.02210
C61         C  0.91224591  0.52214834  0.12324767     0.02210
C62         C  0.93031463  0.48942308  0.13217772     0.02210
C63         C  0.91311360  0.45620625  0.12314161     0.02210
C64         C  0.88482571  0.45607356  0.09684031     0.02210
C65         C  0.87504769  0.48877274  0.07946615     0.02210
C66         C  0.88420438  0.52174738  0.09673366     0.02210
C67         C  0.90950460  0.52131941  0.87694838     0.02210
C68         C  0.93191489  0.48945406  0.87308245     0.02210
C69         C  0.91348138  0.45541826  0.87832792     0.02210
C70         C  0.88385112  0.45428520  0.90331723     0.02210
C71         C  0.87383050  0.48651145  0.92135418     0.02210
C72         C  0.88097028  0.51960942  0.90349473     0.02210
C73         C  0.11979939  0.90595245  0.77795116     0.42390
N74         N  0.17505725  0.92502646  0.78054846     0.01280
C75         C  0.24997709  0.08130013  0.85032152    -0.06600
H76         H  0.16606824  0.10273988  0.74320356     0.06770
C77         C  0.24652977  0.02710855  0.66337859    -0.06950
Co78       Co  0.18486370  0.99218882  0.82506424     0.74180
N79         N  0.17852770  0.05458793  0.77390447    -0.26130
Co80       Co  0.23513393  0.05382650  0.77311354     0.74070
C81         C  0.22083026  0.05708332  0.65981419     0.42490
N82         N  0.25036768  0.94456451  0.70320819     0.00890
N83         N  0.23458287  0.05037694  0.71625191     0.01000
N84         N  0.21444033  0.04454638  0.88496376    -0.46980
H85         H  0.09926526  0.95400904  0.81315944     0.06750
N86         N  0.15861595  0.03237550  0.79415068     0.01280
N87         N  0.29219619  0.05156172  0.77345942     0.01020
C88         C  0.34857053  0.05916680  0.78728741     0.42630
N89         N  0.23099801  0.92137092  0.72274816    -0.25590
C90         C  0.21337481  0.94361455  0.88991955    -0.06510
N91         N  0.15427099  0.89854302  0.76807952    -0.46690
N92         N  0.31452559  0.07171642  0.79358401    -0.46920
C93         C  0.23503775  0.91014936  0.89215760     0.42400
N94         N  0.21490008  0.03397690  0.85019552     0.01270
N95         N  0.28845016  0.92245961  0.77952557    -0.25610
N96         N  0.15650645  0.95002719  0.79863871    -0.26100
N97         N  0.30740989  0.94561478  0.75957624     0.00910
H98         H  0.30427136  0.88244152  0.81981685     0.06800
H99         H  0.36631818  0.01014584  0.75285601     0.06830
N100        N  0.23467181  0.05589032  0.82953625    -0.26150
N101        N  0.25291059  0.02455240  0.69930459    -0.25760
N102        N  0.23140685  0.92679002  0.83624016     0.01270
C103        C  0.12072008  0.07155319  0.77299622     0.42670
C104        C  0.21036611  0.90137083  0.70002661    -0.07010
N105        N  0.30951865  0.02560643  0.75567286    -0.25760
H106        H  0.25644443  0.00865689  0.64263598     0.06820
N107        N  0.12371405  0.04224960  0.79527871    -0.46980
H108        H  0.19038970  0.88115138  0.70792570     0.06810
C109        C  0.34774005  0.91628147  0.78997781     0.42510
C110        C  0.12096155  0.94016591  0.79874550    -0.06510
Co111      Co  0.23157542  0.92313868  0.77970061     0.73820
N112        N  0.24370766  0.94194252  0.66779730    -0.46700
C113        C  0.23666348  0.07408498  0.88691568     0.42770
N114        N  0.24480153  0.90152425  0.85789193    -0.46690
Co115      Co  0.28082338  0.98504100  0.72867255     0.73890
C116        C  0.34537202  0.02863774  0.76221464    -0.07020
C117        C  0.15689070  0.07949063  0.75890174    -0.06580
N118        N  0.21280117  0.95191994  0.85409763    -0.26110
N119        N  0.21426347  0.06996940  0.69368115    -0.46870
H120        H  0.26572971  0.10408520  0.84019594     0.06780
C121        C  0.31168102  0.90271862  0.79973092    -0.06990
Cl122      Cl  0.23291411  0.98854033  0.77677602    -0.50000
C123        C  0.21917913  0.91486993  0.66370451     0.42540
H124        H  0.19869874  0.95785935  0.91118022     0.06750
N125        N  0.34300799  0.94319407  0.76540704    -0.46710
C126        C  0.09279435  0.09999138  0.77513440     0.42390
N127        N  0.07546512  0.15567037  0.77853926     0.01280
C128        C  0.92021399  0.22999447  0.85242886    -0.06600
H129        H  0.89703073  0.14622833  0.74599968     0.06770
C130        C  0.96992265  0.22759041  0.66412776    -0.06950
Co131      Co  0.00971892  0.16639259  0.82494482     0.74180
N132        N  0.94570501  0.15937885  0.77578876    -0.26130
Co133      Co  0.94678573  0.21603203  0.77456101     0.74070
C134        C  0.93900479  0.20286363  0.66150242     0.42490
N135        N  0.05424958  0.22973932  0.70121178     0.00890
N136        N  0.94859348  0.21529820  0.71773969     0.01000
N137        N  0.95833542  0.19498859  0.88588645    -0.46980
H138        H  0.04535702  0.08059847  0.81185905     0.06750
N139        N  0.96853476  0.13974444  0.79551829     0.01280
N140        N  0.94959121  0.27297883  0.77421954     0.01020
C141        C  0.94211249  0.32947067  0.78728960     0.42630
N142        N  0.07849397  0.21120192  0.72020039    -0.25590
C143        C  0.06058167  0.19516010  0.88809840    -0.06510
N144        N  0.10090180  0.13426365  0.76502872    -0.46690
N145        N  0.92965748  0.29550805  0.79422524    -0.46920
C146        C  0.09440283  0.21651769  0.88925841     0.42400
N147        N  0.96866808  0.19652918  0.85109877     0.01270
N148        N  0.07977332  0.26892107  0.77570458    -0.25610
N149        N  0.05063803  0.13766960  0.79747722    -0.26100
N150        N  0.05584217  0.28764980  0.75659231     0.00910
H151        H  0.12384011  0.28469090  0.81116936     0.06800
H152        H  0.99073782  0.34678654  0.75168335     0.06830
N153        N  0.94596690  0.21595020  0.83104996    -0.26150
N154        N  0.97411086  0.23334181  0.69995595    -0.25760
N155        N  0.07610718  0.21264496  0.83382037     0.01270
C156        C  0.92930595  0.10131314  0.77515794     0.42670
C157        C  0.09872481  0.19131402  0.69707996    -0.07010
N158        N  0.97530053  0.29007706  0.75570588    -0.25760
H159        H  0.98767760  0.23757161  0.64276623     0.06820
N160        N  0.95910400  0.10470355  0.79675163    -0.46980
H161        H  0.11976047  0.17211310  0.70461718     0.06810
C162        C  0.08919695  0.32853833  0.78216845     0.42510
C163        C  0.05943624  0.10196718  0.79715076    -0.06510
Co164      Co  0.07817544  0.21215905  0.77710976     0.73820
N165        N  0.05590755  0.22265250  0.66581725    -0.46700
C166        C  0.92815121  0.21614485  0.88863785     0.42770
N167        N  0.10217035  0.22599476  0.85466917    -0.46690
Co168      Co  0.01488739  0.26094901  0.72764946     0.73890
C169        C  0.97237350  0.32599585  0.76175313    -0.07020
C170        C  0.92059960  0.13741671  0.76139503    -0.06580
N171        N  0.05121400  0.19441856  0.85253044    -0.26110
N172        N  0.92751241  0.19582418  0.69576219    -0.46870
H173        H  0.89641126  0.24462160  0.84297663     0.06780
C174        C  0.10212227  0.29232408  0.79278287    -0.06990
Cl175      Cl  0.01239178  0.21387790  0.77615667    -0.50000
C176        C  0.08375964  0.19914089  0.66113374     0.42540
H177        H  0.04672845  0.18081831  0.90986585     0.06750
N178        N  0.06023836  0.32333845  0.75997038    -0.46710
C179        C  0.09447913  0.87816966  0.22353457     0.42390
N180        N  0.07742349  0.82249409  0.21850189     0.01280
C181        C  0.92223230  0.74790714  0.14553617    -0.06600
H182        H  0.89819027  0.83081291  0.25254899     0.06770
C183        C  0.97588566  0.75181610  0.33342773    -0.06950
Co184      Co  0.01078513  0.81277967  0.17315048     0.74180
N185        N  0.94738853  0.81882131  0.22316080    -0.26130
Co186      Co  0.94866064  0.76227534  0.22383350     0.74070
C187        C  0.94594413  0.77762055  0.33673371     0.42490
N188        N  0.05853749  0.74630866  0.29431712     0.00890
N189        N  0.95211511  0.76282938  0.28058531     0.01000
N190        N  0.96009179  0.78358442  0.11225537    -0.46980
H191        H  0.04634274  0.89840882  0.18835589     0.06750
N192        N  0.96991391  0.83888475  0.20344828     0.01280
N193        N  0.95083772  0.70537361  0.22372347     0.01020
C194        C  0.94203877  0.64899240  0.21097206     0.42630
N195        N  0.08209707  0.76549351  0.27513812    -0.25590
C196        C  0.05955696  0.78372267  0.10858160    -0.06510
N197        N  0.10295036  0.84365826  0.23235201    -0.46690
N198        N  0.92967174  0.68304716  0.20468603    -0.46920
C199        C  0.09244759  0.76114372  0.10658026     0.42400
N200        N  0.96970307  0.78274042  0.14723480     0.01270
N201        N  0.08143176  0.70912447  0.21871354    -0.25610
N202        N  0.05221150  0.84091973  0.20057941    -0.26100
N203        N  0.05754019  0.69004684  0.23764624     0.00910
H204        H  0.12424187  0.69358372  0.18125322     0.06800
H205        H  0.99211352  0.63116748  0.24396487     0.06830
N206        N  0.94722746  0.76285758  0.16720847    -0.26150
N207        N  0.97809250  0.74471609  0.29759892    -0.25760
N208        N  0.07627899  0.76631475  0.16241209     0.01270
C209        C  0.92972457  0.87641746  0.22356729     0.42670
C210        C  0.10413170  0.78360808  0.29800343    -0.07010
N211        N  0.97711231  0.68803524  0.24101953    -0.25760
H212        H  0.99458770  0.74238409  0.35416016     0.06820
N213        N  0.95968943  0.87366050  0.20204232    -0.46980
H214        H  0.12543363  0.80224121  0.28976803     0.06810
C215        C  0.08944407  0.64978238  0.20957304     0.42510
C216        C  0.06083512  0.87665431  0.20196905    -0.06510
Co217      Co  0.07999897  0.76592235  0.21863753     0.73820
N218        N  0.06289814  0.75061735  0.32986339    -0.46700
C219        C  0.93056783  0.76156199  0.10924331     0.42770
N220        N  0.10100411  0.75179948  0.14091121    -0.46690
Co221      Co  0.01773601  0.71649964  0.26837965     0.73890
C222        C  0.97370007  0.65220113  0.23467896    -0.07020
C223        C  0.92178770  0.84020514  0.23746206    -0.06580
N224        N  0.05141661  0.78508272  0.14442495    -0.26110
N225        N  0.93272406  0.78356590  0.30294642    -0.46870
H226        H  0.89885823  0.73231832  0.15466136     0.06780
C227        C  0.10290456  0.68600682  0.20019337    -0.06990
Cl228      Cl  0.01428277  0.76449780  0.22091262    -0.50000
C229        C  0.09131863  0.77367149  0.33444451     0.42540
H230        H  0.04518348  0.79783944  0.08705546     0.06750
N231        N  0.06077346  0.65450275  0.23223435    -0.46710
C232        C  0.34799571  0.77676091  0.07098115     0.42390
N233        N  0.29197398  0.76295738  0.06230935     0.01280
C234        C  0.21585387  0.68906401  0.90901077    -0.06600
H235        H  0.30508632  0.80986642  0.89146007     0.06770
C236        C  0.21369263  0.87928478  0.95385728    -0.06950
Co237      Co  0.28243370  0.71918988  0.99504008     0.74180
N238        N  0.28983690  0.77026460  0.93239797    -0.26130
Co239      Co  0.23311360  0.76942416  0.93266541     0.74070
C240        C  0.23524904  0.88194006  0.92027524     0.42490
N241        N  0.21489520  0.83910217  0.04446458     0.00890
N242        N  0.23209102  0.82592752  0.93661413     0.01000
N243        N  0.24898476  0.65814923  0.95065157    -0.46980
H244        H  0.36684998  0.74316541  0.02175797     0.06750
N245        N  0.30892967  0.75134741  0.95626246     0.01280
N246        N  0.17650491  0.76916413  0.93459103     0.01020
C247        C  0.12095389  0.76454981  0.91683399     0.42630
N248        N  0.23411921  0.81829439  0.06664969    -0.25590
C249        C  0.24822803  0.65266224  0.03605878    -0.06510
N250        N  0.31380235  0.78279182  0.08320922    -0.46690
N251        N  0.15558538  0.75561471  0.90871199    -0.46920
C252        C  0.22249947  0.64838548  0.06607178     0.42400
N253        N  0.25362062  0.69370696  0.95391106     0.01270
N254        N  0.17867345  0.76185863  0.06334644    -0.25610
N255        N  0.30984607  0.74575336  0.03633587    -0.26100
N256        N  0.15911875  0.78237388  0.04122472     0.00910
H257        H  0.16523278  0.72910773  0.10987242     0.06800
H258        H  0.10026824  0.79941120  0.96504456     0.06830
N259        N  0.23419699  0.71256450  0.93030566    -0.26150
N260        N  0.21344501  0.84344307  0.96196911    -0.25760
N261        N  0.23531466  0.70510589  0.05964230     0.01270
C262        C  0.34874595  0.78225836  0.92668868     0.42670
C263        C  0.24866034  0.83881225  0.09277838    -0.07010
N264        N  0.15785172  0.78706230  0.95968276    -0.25760
H265        H  0.19878729  0.90026967  0.96824201     0.06820
N266        N  0.34436472  0.75832175  0.95427418    -0.46980
H267        H  0.26388425  0.82853167  0.11582054     0.06810
C268        C  0.12039035  0.75911058  0.07831545     0.42510
C269        C  0.34556286  0.75219814  0.04006913    -0.06510
Co270      Co  0.23510223  0.76191556  0.06372224     0.73820
N271        N  0.21418572  0.87374503  0.05545644    -0.46700
C272        C  0.22607697  0.65305904  0.92249634     0.42770
N273        N  0.21524671  0.68204008  0.07901857    -0.46690
Co274      Co  0.18558522  0.81388547  0.00192831     0.73890
C275        C  0.12217147  0.78587123  0.95065344    -0.07020
C276        C  0.31275964  0.79046919  0.91227535    -0.06580
N277        N  0.25417550  0.68871208  0.03380616    -0.26110
N278        N  0.24527918  0.84785470  0.91141174    -0.46870
H279        H  0.19641725  0.69622210  0.88803042     0.06780
C280        C  0.15653813  0.74547743  0.08692832    -0.06990
Cl281      Cl  0.23403347  0.76617810  0.99832645    -0.50000
C282        C  0.23562504  0.87542528  0.08562663     0.42540
H283        H  0.25866835  0.63220862  0.01758335     0.06750
N284        N  0.12391297  0.78241134  0.04991724    -0.46710
C285        C  0.07662483  0.19952375  0.33816311     0.42390
N286        N  0.07012689  0.21382977  0.28178848     0.01280
C287        C  0.92134874  0.29152673  0.19992538    -0.06600
H288        H  0.89576822  0.17507772  0.28998079     0.06770
C289        C  0.96175566  0.10067843  0.20110639    -0.06950
Co290      Co  0.00454249  0.25990304  0.26960294     0.74180
N291        N  0.93986919  0.21116076  0.27544071    -0.26130
Co292      Co  0.94237786  0.21121123  0.21880015     0.74070
C293        C  0.92823205  0.09885522  0.22284275     0.42490
N294        N  0.05216838  0.13852096  0.20332212     0.00890
N295        N  0.94492668  0.15465086  0.21811356     0.01000
N296        N  0.96325387  0.32223635  0.23310460    -0.46980
H297        H  0.02707546  0.23363753  0.35531664     0.06750
N298        N  0.96342329  0.23012302  0.29482100     0.01280
N299        N  0.94599551  0.21122212  0.16246291     0.01020
C300        C  0.92873044  0.21550640  0.10682126     0.42630
N301        N  0.07450246  0.15823898  0.22358667    -0.25590
C302        C  0.04819928  0.32467607  0.23690117    -0.06510
N303        N  0.08995707  0.19364303  0.30431717    -0.46690
N304        N  0.92064907  0.22504125  0.14123112    -0.46920
C305        C  0.07831180  0.32832090  0.21130890     0.42400
N306        N  0.96538776  0.28667822  0.23875500     0.01270
N307        N  0.07556361  0.21461897  0.16810195    -0.25610
N308        N  0.04379445  0.23144639  0.29879307    -0.26100
N309        N  0.05308731  0.19521979  0.14766873     0.00910
H310        H  0.12467030  0.24442156  0.15651961     0.06800
H311        H  0.97616023  0.17913022  0.08692423     0.06830
N312        N  0.94161628  0.26802374  0.21924579    -0.26150
N313        N  0.97016411  0.13646489  0.19994104    -0.25760
N314        N  0.07114936  0.27177252  0.22470028     0.01270
C315        C  0.92982700  0.20349310  0.33478637     0.42670
C316        C  0.09934881  0.13643561  0.23846472    -0.07010
N317        N  0.97090308  0.19268105  0.14425016    -0.25760
H318        H  0.97640975  0.07907567  0.18739615     0.06820
N319        N  0.95854367  0.22615190  0.33031084    -0.46980
H320        H  0.12262985  0.14541788  0.25424246     0.06810
C321        C  0.09321561  0.21610075  0.11043748     0.42510
C322        C  0.04591451  0.22433688  0.33461675    -0.06510
Co323      Co  0.07362020  0.21479460  0.22472103     0.73820
N324        N  0.06183005  0.10358320  0.20210992    -0.46700
C325        C  0.93562156  0.32735246  0.20948314     0.42770
N326        N  0.09094688  0.29439498  0.20450262    -0.46690
Co327      Co  0.01165042  0.16492510  0.17295269     0.73890
C328        C  0.96211746  0.19353167  0.10850479    -0.07020
C329        C  0.91735103  0.19339270  0.29823735    -0.06580
N330        N  0.04531510  0.28876422  0.24297917    -0.26110
N331        N  0.91958819  0.13326517  0.23196477    -0.46870
H332        H  0.90054048  0.28441076  0.18026799     0.06780
C333        C  0.10117929  0.22931792  0.14692280    -0.06990
Cl334      Cl  0.00805612  0.21253485  0.22140814    -0.50000
C335        C  0.09116987  0.10034512  0.22432901     0.42540
H336        H  0.02964196  0.34537101  0.24666427     0.06750
N337        N  0.06328569  0.19451002  0.11283387    -0.46710
C338        C  0.22063006  0.92607314  0.34065240     0.42390
N339        N  0.23521397  0.93121650  0.28428753     0.01280
C340        C  0.31101373  0.07991187  0.19972989    -0.06600
H341        H  0.19117927  0.10081782  0.29137437     0.06770
C342        C  0.12108869  0.03802854  0.20149905    -0.06950
Co343      Co  0.28141566  0.99680618  0.27091179     0.74180
N344        N  0.23126601  0.06019847  0.27656609    -0.26130
Co345      Co  0.23146478  0.05743208  0.21967656     0.74070
C346        C  0.11942814  0.07217102  0.22235007     0.42490
N347        N  0.15963503  0.94690371  0.20612077     0.00890
N348        N  0.17502021  0.05438600  0.21917949     0.01000
N349        N  0.34323997  0.03995385  0.23362370    -0.46980
H350        H  0.25642906  0.97467776  0.35709892     0.06750
N351        N  0.25078641  0.03728943  0.29613921     0.01280
N352        N  0.23130289  0.05309695  0.16327563     0.01020
C353        C  0.23497100  0.06935779  0.10727375     0.42630
N354        N  0.17957877  0.92496910  0.22651114    -0.25590
C355        C  0.34622602  0.95303239  0.23856367    -0.06510
N356        N  0.21444964  0.91226767  0.30709662    -0.46690
N357        N  0.24453032  0.07834489  0.14146823    -0.46920
C358        C  0.35016639  0.92096835  0.21545485     0.42400
N359        N  0.30767817  0.03643380  0.23941133     0.01270
N360        N  0.23582866  0.92358266  0.17092523    -0.25610
N361        N  0.25350922  0.95743143  0.30079070    -0.26100
N362        N  0.21594720  0.94528286  0.15017469     0.00910
H363        H  0.26580522  0.87464636  0.16053066     0.06800
H364        H  0.19920369  0.02098875  0.08852891     0.06830
N365        N  0.28825440  0.05927702  0.21965015    -0.26150
N366        N  0.15681230  0.02898052  0.20125892    -0.25760
N367        N  0.29338150  0.92906051  0.22783802     0.01270
C368        C  0.22030811  0.06768178  0.33578416     0.42670
C369        C  0.15805072  0.89963373  0.24116400    -0.07010
N370        N  0.21307558  0.02753228  0.14560436    -0.25760
H371        H  0.09952019  0.02360505  0.18743032     0.06820
N372        N  0.24445755  0.04034259  0.33157131    -0.46980
H373        H  0.16733606  0.87640866  0.25678493     0.06810
C374        C  0.23636944  0.90414519  0.11375134     0.42510
C375        C  0.24669311  0.95575512  0.33669270    -0.06510
Co376      Co  0.23619837  0.92649313  0.22754953     0.73820
N377        N  0.12489366  0.93649060  0.20456829    -0.46700
C378        C  0.34741508  0.06743114  0.20942936     0.42770
N379        N  0.31621530  0.90772649  0.20957402    -0.46690
Co380      Co  0.18562481  0.98709373  0.17502233     0.73890
C381        C  0.21363608  0.03560599  0.10971335    -0.07020
C382        C  0.21118412  0.08071269  0.29932554    -0.06580
N383        N  0.31031164  0.95603517  0.24452595    -0.26110
N384        N  0.15382668  0.08035614  0.23191236    -0.46870
H385        H  0.30310574  0.10023872  0.17991728     0.06780
C386        C  0.25037183  0.89754502  0.15027916    -0.06990
Cl387      Cl  0.23367924  0.99193587  0.22318984    -0.50000
C388        C  0.12194240  0.90704738  0.22665759     0.42540
H389        H  0.36691421  0.97197268  0.24771531     0.06750
N390        N  0.21466552  0.93399206  0.11565101    -0.46710
C391        C  0.23525208  0.09742344  0.07904280     0.42390
N392        N  0.23243245  0.15340965  0.06261504     0.01280
C393        C  0.15929520  0.23121168  0.90918068    -0.06600
H394        H  0.26705217  0.14847323  0.88538258     0.06770
C395        C  0.34762629  0.22523829  0.96045595    -0.06950
Co396      Co  0.18618562  0.16528972  0.99703637     0.74180
N397        N  0.23601828  0.15971858  0.93346006    -0.26130
Co398      Co  0.23726626  0.21602370  0.93544322     0.74070
C399        C  0.35036359  0.20120005  0.92897733     0.42490
N400        N  0.30977196  0.22889310  0.04417458     0.00890
N401        N  0.29419847  0.21513110  0.93762330     0.01000
N402        N  0.12545826  0.19593477  0.94686872    -0.46980
H403        H  0.19860621  0.07909190  0.03123114     0.06750
N404        N  0.21581827  0.13947309  0.95535480     0.01280
N405        N  0.23753203  0.27252773  0.93904696     0.01020
C406        C  0.22392097  0.32877198  0.93265550     0.42630
N407        N  0.29057684  0.20917822  0.06733866    -0.25590
C408        C  0.12274379  0.19333454  0.04816562    -0.06510
N409        N  0.24556697  0.13148847  0.08777773    -0.46690
N410        N  0.21728454  0.29511964  0.91951570    -0.46920
C411        C  0.12154633  0.21423826  0.08225224     0.42400
N412        N  0.16040288  0.19642341  0.95669170     0.01270
N413        N  0.23470525  0.26676193  0.06890707    -0.25610
N414        N  0.21352922  0.13591152  0.03741608    -0.26100
N415        N  0.25384833  0.28586623  0.04519370     0.00910
H416        H  0.19659993  0.28238870  0.11113792     0.06800
H417        H  0.25996096  0.34582903  0.98093693     0.06830
N418        N  0.18066685  0.21608433  0.93430622    -0.26150
N419        N  0.31187225  0.23220915  0.96385894    -0.25760
N420        N  0.17706639  0.21018186  0.06422568     0.01270
C421        C  0.23704499  0.10234664  0.91534683     0.42670
C422        C  0.31360832  0.18921888  0.08751916    -0.07010
N423        N  0.25603215  0.28928994  0.96491901    -0.25760
H424        H  0.36885639  0.23410492  0.97890992     0.06820
N425        N  0.21476446  0.10472986  0.94482703    -0.46980
H426        H  0.30597223  0.16941582  0.10799961     0.06810
C427        C  0.22536394  0.32618558  0.07667318     0.42510
C428        C  0.21356753  0.10008375  0.04559581    -0.06510
Co429      Co  0.23371797  0.20987329  0.06653450     0.73820
N430        N  0.34533483  0.22325455  0.04709624    -0.46700
C431        C  0.12283961  0.21798987  0.91733386     0.42770
N432        N  0.15615424  0.22331050  0.09032190    -0.46690
Co433      Co  0.28364646  0.25980413  0.00451964     0.73890
C434        C  0.24986770  0.32518909  0.96245371    -0.07020
C435        C  0.25106340  0.13865892  0.90814659    -0.06580
N436        N  0.15839752  0.19246720  0.03897613    -0.26110
N437        N  0.31614899  0.19550553  0.91665139    -0.46870
H438        H  0.16872728  0.24658054  0.88580481     0.06780
C439        C  0.21601570  0.28994412  0.09023039    -0.06990
Cl440      Cl  0.23504472  0.21263466  0.00093377    -0.50000
C441        C  0.34986408  0.19898186  0.07431476     0.42540
H442        H  0.10090370  0.17950720  0.03391805     0.06750
N443        N  0.24842443  0.32139069  0.04837476    -0.46710
C444        C  0.80347088  0.05078758  0.33963143     0.42390
N445        N  0.78774750  0.04683236  0.28343422     0.01280
C446        C  0.70869190  0.90439372  0.19491425    -0.06600
H447        H  0.82684600  0.87503014  0.28948153     0.06770
C448        C  0.90013978  0.93875391  0.20068938    -0.06950
Co449      Co  0.74043296  0.98240108  0.26998097     0.74180
N450        N  0.78871449  0.91754230  0.27485940    -0.26130
Co451      Co  0.78908735  0.92102399  0.21785542     0.74070
C452        C  0.90125943  0.90441833  0.22118556     0.42490
N453        N  0.86304478  0.03035374  0.20522172     0.00890
N454        N  0.84580976  0.92270839  0.21766119     0.01000
N455        N  0.67806498  0.94358341  0.23121495    -0.46980
H456        H  0.76699202  0.00260164  0.35591507     0.06750
N457        N  0.76986811  0.94086991  0.29462789     0.01280
N458        N  0.78993370  0.92556660  0.16147976     0.01020
C459        C  0.78740973  0.90894877  0.10548124     0.42630
N460        N  0.84327966  0.05233990  0.22574126    -0.25590
C461        C  0.67618543  0.02739059  0.23786726    -0.06510
N462        N  0.80931737  0.06496805  0.30614477    -0.46690
N463        N  0.77697315  0.90033343  0.13952173    -0.46920
C464        C  0.67309874  0.05804559  0.21293327     0.42400
N465        N  0.71350791  0.94419682  0.23807621     0.01270
N466        N  0.78720621  0.05460154  0.17015106    -0.25610
N467        N  0.76921635  0.02079155  0.29993422    -0.26100
N468        N  0.80677946  0.03281323  0.14920345     0.00910
H469        H  0.75652794  0.10310366  0.16004993     0.06800
H470        H  0.82435294  0.95665898  0.08731382     0.06830
N471        N  0.73212294  0.92161589  0.21718336    -0.26150
N472        N  0.86452006  0.94810472  0.20015475    -0.25760
N473        N  0.72959316  0.04978242  0.22627046     0.01270
C474        C  0.79842308  0.90857121  0.33420194     0.42670
C475        C  0.86494768  0.07735452  0.24061969    -0.07010
N476        N  0.80889257  0.95076063  0.14407377    -0.25760
H477        H  0.92200542  0.95314642  0.18702517     0.06820
N478        N  0.77545451  0.93690916  0.33006291    -0.46980
H479        H  0.85577727  0.10059510  0.25630366     0.06810
C480        C  0.78524588  0.07342214  0.11295851     0.42510
C481        C  0.77667606  0.02175371  0.33570164    -0.06510
Co482      Co  0.78677689  0.05163611  0.22658810     0.73820
N483        N  0.89785709  0.04055912  0.20369409    -0.46700
C484        C  0.67299638  0.91904764  0.20439424     0.42770
N485        N  0.70730973  0.07029545  0.20647282    -0.46690
Co486      Co  0.83660435  0.99060911  0.17389893     0.73890
C487        C  0.80906537  0.94247784  0.10821205    -0.07020
C488        C  0.80757460  0.89581055  0.29755940    -0.06580
N489        N  0.71209338  0.02385545  0.24396850    -0.26110
N490        N  0.86664262  0.89638020  0.23034244    -0.46870
H491        H  0.71581800  0.88543067  0.17352749     0.06780
C492        C  0.77210784  0.08035600  0.14967384    -0.06990
Cl493      Cl  0.78833825  0.98640286  0.22203874    -0.50000
C494        C  0.90097085  0.06982961  0.22602439     0.42540
H495        H  0.65506851  0.00906740  0.24730262     0.06750
N496        N  0.80721573  0.04373418  0.11454203    -0.46710
C497        C  0.67163573  0.20471740  0.07449430     0.42390
N498        N  0.72826648  0.21565444  0.06371846     0.01280
C499        C  0.80505950  0.28902963  0.90936476    -0.06600
H500        H  0.71460000  0.16952360  0.89159421     0.06770
C501        C  0.80702307  0.09891492  0.95293133    -0.06950
Co502      Co  0.73852536  0.25904270  0.99595981     0.74180
N503        N  0.73046572  0.20849298  0.93288538    -0.26130
Co504      Co  0.78723714  0.20886749  0.93284854     0.74070
C505        C  0.78569208  0.09639395  0.91923368     0.42490
N506        N  0.80537006  0.13856218  0.04389147     0.00890
N507        N  0.78807984  0.15227366  0.93631231     0.01000
N508        N  0.77317384  0.32024388  0.95177460    -0.46980
H509        H  0.65359072  0.23681920  0.02385327     0.06750
N510        N  0.71164749  0.22759201  0.95686040     0.01280
N511        N  0.84393613  0.20879305  0.93445302     0.01020
C512        C  0.89948583  0.21311581  0.91645063     0.42630
N513        N  0.78590941  0.15908244  0.06620074    -0.25590
C514        C  0.77250275  0.32484671  0.03836987    -0.06510
N515        N  0.70596902  0.19802256  0.08616451    -0.46690
N516        N  0.86486242  0.22220381  0.90846238    -0.46920
C517        C  0.79760794  0.32850019  0.06898247     0.42400
N518        N  0.76778323  0.28472379  0.95483583     0.01270
N519        N  0.84192169  0.21506211  0.06382408    -0.25610
N520        N  0.71066560  0.23251503  0.03737907    -0.26100
N521        N  0.86145421  0.19487206  0.04132307     0.00910
H522        H  0.85547762  0.24687750  0.11098631     0.06800
H523        H  0.92011868  0.17816132  0.96456608     0.06830
N524        N  0.78659330  0.26572802  0.93081053    -0.26150
N525        N  0.80686150  0.13465603  0.96147323    -0.25760
N526        N  0.78543502  0.27202876  0.06089062     0.01270
C527        C  0.67125632  0.19793262  0.92672889     0.42670
C528        C  0.77125070  0.13823017  0.09196748    -0.07010
N529        N  0.86259158  0.19084912  0.95948731    -0.25760
H530        H  0.82224388  0.07796539  0.96700619     0.06820
N531        N  0.67607652  0.22145694  0.95462096    -0.46980
H532        H  0.75594494  0.14826370  0.11508904     0.06810
C533        C  0.90026870  0.21725558  0.07892078     0.42510
C534        C  0.67483094  0.22734300  0.04196717    -0.06510
Co535      Co  0.78531350  0.21549754  0.06430664     0.73820
N536        N  0.80630464  0.10386538  0.05456797    -0.46700
C537        C  0.79590146  0.32515892  0.92328663     0.42770
N538        N  0.80491994  0.29466797  0.08120922    -0.46690
Co539      Co  0.83481530  0.16389151  0.00164984     0.73890
C540        C  0.89825426  0.19185788  0.95030255    -0.07020
C541        C  0.70720945  0.18888090  0.91257118    -0.06580
N542        N  0.76688597  0.28885422  0.03514358    -0.26110
N543        N  0.77528800  0.13048980  0.91075624    -0.46870
H544        H  0.82415366  0.28161262  0.88813150     0.06780
C545        C  0.86412553  0.23083836  0.08777634    -0.06990
Cl546      Cl  0.78652701  0.21163650  0.99866155    -0.50000
C547        C  0.78473191  0.10177624  0.08459343     0.42540
H548        H  0.76194303  0.34566556  0.02039227     0.06750
N549        N  0.89666900  0.19449796  0.05006964    -0.46710
C550        C  0.08116848  0.77677964  0.66209001     0.42390
N551        N  0.07229028  0.76333758  0.71812259     0.01280
C552        C  0.91882168  0.68787484  0.79463316    -0.06600
H553        H  0.90400758  0.80957203  0.70521964     0.06770
C554        C  0.96225747  0.87689860  0.79726828    -0.06950
Co555      Co  0.00589011  0.71740268  0.72831208     0.74180
N556        N  0.94298634  0.76812814  0.72063326    -0.26130
Co557      Co  0.94298036  0.76693441  0.77726305     0.74070
C558        C  0.92926257  0.87895818  0.77474017     0.42490
N559        N  0.05262565  0.83881966  0.79622899     0.00890
N560        N  0.94607813  0.82323232  0.77879965     0.01000
N561        N  0.96138875  0.65519885  0.76445142    -0.46980
H562        H  0.03189805  0.74304417  0.64336737     0.06750
N563        N  0.96631173  0.74844707  0.70165286     0.01280
N564        N  0.94488389  0.76607851  0.83375699     0.01020
C565        C  0.92734054  0.75987822  0.88912727     0.42630
N566        N  0.07534604  0.81924148  0.77630282    -0.25590
C567        C  0.05056765  0.65263980  0.76093766    -0.06510
N568        N  0.09338013  0.78287053  0.69620749    -0.46690
N569        N  0.91921569  0.75167464  0.85437884    -0.46920
C570        C  0.08227807  0.64971106  0.78479683     0.42400
N571        N  0.96504285  0.69070076  0.75813957     0.01270
N572        N  0.07497485  0.76241432  0.83131599    -0.25610
N573        N  0.04638601  0.74570531  0.70043689    -0.26100
N574        N  0.05223608  0.78175409  0.85144338     0.00910
H575        H  0.12424274  0.73329873  0.84327810     0.06800
H576        H  0.97505909  0.79508006  0.91052277     0.06830
N577        N  0.94092446  0.71028538  0.77615811    -0.26150
N578        N  0.97076505  0.84112454  0.79794768    -0.25760
N579        N  0.07197274  0.70604570  0.77386348     0.01270
C580        C  0.93861889  0.78094411  0.66176163     0.42670
C581        C  0.10054556  0.84117685  0.76204049    -0.07010
N582        N  0.96984340  0.78384715  0.85274409    -0.25760
H583        H  0.97639940  0.89829619  0.81185889     0.06820
N584        N  0.96488815  0.75563249  0.66624226    -0.46980
H585        H  0.12411123  0.83235073  0.74661013     0.06810
C586        C  0.09236887  0.76162011  0.88901119     0.42510
C587        C  0.04991344  0.75249374  0.66471564    -0.06510
Co588      Co  0.07427037  0.76265379  0.77478385     0.73820
N589        N  0.06220507  0.87380320  0.79771996    -0.46700
C590        C  0.93263706  0.65130834  0.78742489     0.42770
N591        N  0.09371248  0.68385392  0.79210988    -0.46690
Co592      Co  0.01138338  0.81212221  0.82544746     0.73890
C593        C  0.96089432  0.78170883  0.88835782    -0.07020
C594        C  0.92410700  0.78940804  0.69767828    -0.06580
N595        N  0.04611787  0.68858357  0.75593296    -0.26110
N596        N  0.92103273  0.84471222  0.76482984    -0.46870
H597        H  0.89686415  0.69635584  0.81238242     0.06780
C598        C  0.10048244  0.74802741  0.85271421    -0.06990
Cl599      Cl  0.00865423  0.76473938  0.77654308    -0.50000
C600        C  0.09200667  0.87719988  0.77609763     0.42540
H601        H  0.03283636  0.63140459  0.75066551     0.06750
N602        N  0.06232327  0.78294589  0.88629167    -0.46710
C603        C  0.90173348  0.07227548  0.77665781     0.42390
N604        N  0.84653660  0.05294177  0.77899878     0.01280
C605        C  0.77256070  0.89560914  0.84909155    -0.06600
H606        H  0.85654624  0.87580173  0.74197005     0.06770
C607        C  0.77543171  0.94960509  0.66235129    -0.06950
Co608      Co  0.83659597  0.98590002  0.82407154     0.74180
N609        N  0.84341754  0.92358776  0.77294901    -0.26130
Co610      Co  0.78677950  0.92371839  0.77213772     0.74070
C611        C  0.79975719  0.91842451  0.65889642     0.42490
N612        N  0.77136210  0.03277361  0.70200129     0.00890
N613        N  0.78712485  0.92674701  0.71537530     0.01000
N614        N  0.80771896  0.93252833  0.88388833    -0.46980
H615        H  0.92214145  0.02457387  0.81239327     0.06750
N616        N  0.86305288  0.94594109  0.79328140     0.01280
N617        N  0.72973803  0.92545250  0.77204609     0.01020
C618        C  0.67313381  0.91628106  0.78393193     0.42630
N619        N  0.79032857  0.05652656  0.72122348    -0.25590
C620        C  0.80785976  0.03468419  0.88879270    -0.06510
N621        N  0.86731154  0.07941878  0.76645296    -0.46690
N622        N  0.70723193  0.90415461  0.79075952    -0.46920
C623        C  0.78650792  0.06838480  0.89084241     0.42400
N624        N  0.80672686  0.94369163  0.84928777     0.01270
N625        N  0.73336585  0.05507425  0.77855263    -0.25610
N626        N  0.86499999  0.02816245  0.79746144    -0.26100
N627        N  0.71430210  0.03176750  0.75889412     0.00910
H628        H  0.71816826  0.09424678  0.81984408     0.06800
H629        H  0.65549429  0.96617964  0.75067903     0.06830
N630        N  0.78717770  0.92165383  0.82854370    -0.26150
N631        N  0.76923775  0.95277947  0.69829740    -0.25760
N632        N  0.79037139  0.05152825  0.83496346     0.01270
C633        C  0.90145188  0.90736470  0.77203549     0.42670
C634        C  0.81021853  0.07692459  0.69809784    -0.07010
N635        N  0.71245183  0.95163212  0.75458568    -0.25760
H636        H  0.76559061  0.96780945  0.64137370     0.06820
N637        N  0.89805264  0.93650643  0.79442347    -0.46980
H638        H  0.82986638  0.09757527  0.70570959     0.06810
C639        C  0.67443386  0.05958029  0.79151843     0.42510
C640        C  0.90050784  0.03819676  0.79771240    -0.06510
Co641      Co  0.79008997  0.05479133  0.77831196     0.73820
N642        N  0.77797868  0.03501076  0.66655744    -0.46700
C643        C  0.78608215  0.90248171  0.88563286     0.42770
N644        N  0.77712493  0.07702336  0.85649634    -0.46690
Co645      Co  0.74106780  0.99237166  0.72768540     0.73890
C646        C  0.67652813  0.94793347  0.76030072    -0.07020
C647        C  0.86540443  0.89908647  0.75779146    -0.06580
N648        N  0.80858350  0.02625042  0.85298570    -0.26110
N649        N  0.80641118  0.90605366  0.69288210    -0.46870
H650        H  0.75736426  0.87254755  0.83874751     0.06780
C651        C  0.71046243  0.07410942  0.79975131    -0.06990
Cl652      Cl  0.78868733  0.98918829  0.77561622    -0.50000
C653        C  0.80166965  0.06271922  0.66188964     0.42540
H654        H  0.82229917  0.02039323  0.91015884     0.06750
N655        N  0.67884890  0.03338775  0.76601500    -0.46710
C656        C  0.78795326  0.88039380  0.07773592     0.42390
N657        N  0.79138630  0.82424626  0.06206985     0.01280
C658        C  0.86273325  0.74391858  0.90928286    -0.06600
H659        H  0.75559402  0.82770448  0.88438907     0.06770
C660        C  0.67443360  0.75148387  0.96313656    -0.06950
Co661      Co  0.83660090  0.81160620  0.99604243     0.74180
N662        N  0.78635382  0.81660432  0.93271841    -0.26130
Co663      Co  0.78441366  0.76011365  0.93547103     0.74070
C664        C  0.67106195  0.77554935  0.93176237     0.42490
N665        N  0.71449585  0.74853277  0.04606617     0.00890
N666        N  0.72742651  0.76167102  0.93907899     0.01000
N667        N  0.89647636  0.77980939  0.94645429    -0.46980
H668        H  0.82389547  0.89854273  0.02923127     0.06750
N669        N  0.80669801  0.83696744  0.95437362     0.01280
N670        N  0.78294074  0.70319769  0.93916149     0.01020
C671        C  0.79236949  0.64599053  0.93137773     0.42630
N672        N  0.73400430  0.76814156  0.06895048    -0.25590
C673        C  0.90097988  0.78438510  0.04679692    -0.06510
N674        N  0.77812986  0.84633606  0.08702314    -0.46690
N675        N  0.80020690  0.67945428  0.91802760    -0.46920
C676        C  0.90239228  0.76357337  0.08099474     0.42400
N677        N  0.86152685  0.77962741  0.95606354     0.01270
N678        N  0.78997367  0.71118721  0.06904715    -0.25610
N679        N  0.80982214  0.84159698  0.03641740    -0.26100
N680        N  0.77003669  0.69171482  0.04630929     0.00910
H681        H  0.82969204  0.69633499  0.10995402     0.06800
H682        H  0.75929098  0.63105091  0.98240851     0.06830
N683        N  0.84120796  0.75960003  0.93400924    -0.26150
N684        N  0.71029089  0.74471303  0.96581833    -0.25760
N685        N  0.84684391  0.76760833  0.06334239     0.01270
C686        C  0.78599305  0.87391225  0.91389859     0.42670
C687        C  0.71135554  0.78692952  0.09066351    -0.07010
N688        N  0.76532567  0.68725986  0.96614348    -0.25760
H689        H  0.65362043  0.74259102  0.98207852     0.06820
N690        N  0.80809988  0.87159080  0.94346105    -0.46980
H691        H  0.71969108  0.80607115  0.11145884     0.06810
C692        C  0.79975686  0.65213358  0.07724186     0.42510
C693        C  0.80945297  0.87754589  0.04412425    -0.06510
Co694      Co  0.79055385  0.76786474  0.06652354     0.73820
N695        N  0.67904928  0.75309863  0.05051825    -0.46700
C696        C  0.89924187  0.75734301  0.91734941     0.42770
N697        N  0.86787738  0.75458750  0.08929362    -0.46690
Co698      Co  0.73934066  0.71737277  0.00611416     0.73890
C699        C  0.76957310  0.65115930  0.96342808    -0.07020
C700        C  0.77167621  0.83757616  0.90705127    -0.06580
N701        N  0.86523520  0.78516253  0.03784568    -0.26110
N702        N  0.70501126  0.78122400  0.91855185    -0.46870
H703        H  0.85341533  0.72810912  0.88616390     0.06780
C704        C  0.80969967  0.68847604  0.08975062    -0.06990
Cl705      Cl  0.78776780  0.76426318  0.00100427    -0.50000
C706        C  0.67481235  0.77680947  0.07831259     0.42540
H707        H  0.92274283  0.79808341  0.03228251     0.06750
N708        N  0.77546575  0.65622835  0.04994256    -0.46710
C709        C  0.91377041  0.55456508  0.85280637    -0.05540
C710        C  0.91261176  0.58974620  0.86821130    -0.32970
C711        C  0.91714126  0.62110767  0.84711675     0.36280
C712        C  0.92520017  0.61823766  0.80963581    -0.05900
C713        C  0.92769020  0.58339471  0.79402929    -0.32870
C714        C  0.92145318  0.55185657  0.81505119     0.36190
H715        H  0.91078387  0.59325876  0.89734483     0.16560
O716        O  0.91667751  0.65433369  0.86429961    -0.60360
H717        H  0.93420389  0.58059031  0.76532712     0.16570
O718        O  0.92374028  0.51856777  0.79843035    -0.60460
H719        H  0.89922958  0.51432322  0.78777000     0.43570
H720        H  0.89063358  0.65904931  0.87002935     0.43520
C721        C  0.85666048  0.55080674  0.91147615    -0.05540
C722        C  0.86183307  0.57125424  0.94338841    -0.32970
C723        C  0.84101394  0.60243855  0.94982580     0.36280
C724        C  0.81458341  0.61348734  0.92433409    -0.05900
C725        C  0.80868367  0.59262633  0.89289345    -0.32870
C726        C  0.82944725  0.56121608  0.88646298     0.36190
H727        H  0.88289415  0.56369953  0.96268626     0.16560
O728        O  0.84743478  0.62265354  0.98058101    -0.60360
H729        H  0.78785791  0.60056062  0.87350061     0.16570
O730        O  0.82282645  0.54057946  0.85595458    -0.60460
H731        H  0.83543390  0.55342714  0.83574380     0.43570
H732        H  0.83018883  0.61284937  0.99898168     0.43520
C733        C  0.93460511  0.36143710  0.81035626    -0.05540
C734        C  0.93438371  0.35766569  0.84838607    -0.32970
C735        C  0.92895693  0.38802286  0.87107077     0.36280
C736        C  0.92265454  0.42273362  0.85553290    -0.05900
C737        C  0.92360611  0.42626255  0.81738972    -0.32870
C738        C  0.92973059  0.39608189  0.79488586     0.36190
H739        H  0.93957051  0.33126754  0.86059361     0.16560
O740        O  0.93260473  0.38428699  0.90820499    -0.60360
H741        H  0.91854990  0.45230970  0.80485230     0.16570
O742        O  0.93033003  0.40063853  0.75774858    -0.60460
H743        H  0.90474787  0.39686319  0.74975367     0.43570
H744        H  0.91737819  0.36305603  0.91532347     0.43520
C745        C  0.86077098  0.42132486  0.90842378    -0.05540
C746        C  0.85979824  0.40360820  0.94232368    -0.32970
C747        C  0.83825822  0.37258896  0.94742604     0.36280
C748        C  0.81778772  0.35835954  0.91828330    -0.05900
C749        C  0.81846001  0.37595198  0.88442419    -0.32870
C750        C  0.83938478  0.40763846  0.87947909     0.36190
H751        H  0.87645859  0.41313531  0.96473495     0.16560
O752        O  0.83843976  0.35549821  0.98065952    -0.60360
H753        H  0.80229743  0.36546387  0.86199956     0.16570
O754        O  0.83788057  0.42587288  0.84680051    -0.60460
H755        H  0.84771745  0.40874280  0.82832092     0.43570
H756        H  0.82266824  0.37078137  0.99642249     0.43520
C757        C  0.92002620  0.55536257  0.14484956    -0.05540
C758        C  0.90146846  0.56034676  0.17796395    -0.32970
C759        C  0.90803157  0.59117475  0.19947210     0.36280
C760        C  0.93344137  0.61740367  0.18791985    -0.05900
C761        C  0.95192284  0.61262153  0.15473640    -0.32870
C762        C  0.94497979  0.58193434  0.13284929     0.36190
H763        H  0.88185810  0.54017283  0.18712174     0.16560
O764        O  0.88937111  0.59557281  0.23161512    -0.60360
H765        H  0.97177493  0.63268065  0.14585660     0.16570
O766        O  0.96308674  0.57742914  0.10032113    -0.60460
H767        H  0.96084711  0.60080553  0.08691457     0.43570
H768        H  0.90461872  0.58347051  0.25037518     0.43520
C769        C  0.86192609  0.55451750  0.08970391    -0.05540
C770        C  0.87728102  0.58483931  0.07229830    -0.32970
C771        C  0.85774872  0.61742086  0.06964832     0.36280
C772        C  0.82146842  0.61899653  0.08214872    -0.05900
C773        C  0.80558841  0.58831866  0.09838046    -0.32870
C774        C  0.82588014  0.55633637  0.10290198     0.36190
H775        H  0.90453699  0.58333249  0.06114050     0.16560
O776        O  0.87382236  0.64719236  0.05362723    -0.60360
H777        H  0.77776175  0.58946593  0.10833950     0.16570
O778        O  0.81105796  0.52755115  0.12175019    -0.60460
H779        H  0.79157012  0.51760676  0.10584403     0.43570
H780        H  0.88770134  0.65929707  0.07345969     0.43520
C781        C  0.93068621  0.36080670  0.18828696    -0.05540
C782        C  0.95681403  0.37072197  0.16209233    -0.32970
C783        C  0.95163970  0.40169607  0.14029394     0.36280
C784        C  0.92041185  0.42341005  0.14542451    -0.05900
C785        C  0.89475509  0.41370128  0.17218331    -0.32870
C786        C  0.89969771  0.38254619  0.19349174     0.36190
H787        H  0.98087193  0.35402896  0.15808012     0.16560
O788        O  0.97711277  0.41063109  0.11430822    -0.60360
H789        H  0.87067902  0.43032292  0.17635354     0.16570
O790        O  0.87407378  0.37345320  0.21923393    -0.60460
H791        H  0.88240690  0.38543036  0.24202358     0.43570
H792        H  0.97621582  0.39076613  0.09598458     0.43520
C793        C  0.82017877  0.36053769  0.07709686    -0.05540
C794        C  0.85702587  0.36100130  0.06661596    -0.32970
C795        C  0.87831601  0.39229937  0.07189600     0.36280
C796        C  0.86307078  0.42295034  0.08911011    -0.05900
C797        C  0.82628180  0.42227572  0.09977699    -0.32870
C798        C  0.80482162  0.39132678  0.09377578     0.36190
H799        H  0.86890939  0.33748315  0.05325400     0.16560
O800        O  0.91361950  0.39298172  0.05954818    -0.60360
H801        H  0.81430219  0.44578186  0.11306694     0.16570
O802        O  0.76894179  0.39131113  0.10444668    -0.60460
H803        H  0.76904546  0.38152543  0.12967259     0.43570
H804        H  0.91204104  0.40172889  0.03399444     0.43520
C805        C  0.87199274  0.48643471  0.96187997    -0.05540
C806        C  0.83914892  0.49134687  0.98113177    -0.32970
C807        C  0.83906399  0.49240299  0.01966457     0.36280
C808        C  0.87204517  0.48825564  0.03899473    -0.05900
C809        C  0.90452090  0.48320480  0.01945353    -0.32870
C810        C  0.90473538  0.48232515  0.98149701     0.36190
H811        H  0.81379295  0.49458601  0.96632882     0.16560
O812        O  0.80679736  0.49673155  0.03803967    -0.60360
H813        H  0.93007391  0.47983580  0.03385309     0.16570
O814        O  0.93737599  0.47806586  0.96361342    -0.60460
H815        H  0.94121195  0.45134818  0.96212970     0.43570
H816        H  0.80000318  0.52263611  0.03440031     0.43520
C817        C  0.10209605  0.55476411  0.14248857    -0.05540
C818        C  0.12907272  0.56395169  0.16819574    -0.32970
C819        C  0.12555676  0.59514063  0.19005983     0.36280
C820        C  0.09431177  0.61703022  0.18705503    -0.05900
C821        C  0.06755964  0.60818999  0.16135943    -0.32870
C822        C  0.07141647  0.57756242  0.13893147     0.36190
H823        H  0.15302266  0.54691279  0.17114594     0.16560
O824        O  0.15233803  0.60356040  0.21478156    -0.60360
H825        H  0.04374622  0.62542311  0.15831190     0.16570
O826        O  0.04557078  0.57097302  0.11294328    -0.60460
H827        H  0.02346772  0.56421516  0.12696302     0.43570
H828        H  0.16974439  0.61930102  0.20127684     0.43520
C829        C  0.15714166  0.55285176  0.08392402    -0.05540
C830        C  0.19414693  0.55325285  0.09384846    -0.32970
C831        C  0.21556059  0.58442226  0.08841306     0.36280
C832        C  0.19995118  0.61589963  0.07326236    -0.05900
C833        C  0.16291727  0.61567949  0.06343680    -0.32870
C834        C  0.14164632  0.58420135  0.06815842     0.36190
H835        H  0.20630732  0.52939566  0.10630262     0.16560
O836        O  0.25162352  0.58404031  0.09838667    -0.60360
H837        H  0.15073244  0.63970343  0.05133875     0.16570
O838        O  0.10587489  0.58427934  0.05722077    -0.60460
H839        H  0.10584945  0.57225189  0.03297880     0.43570
H840        H  0.25197510  0.59286553  0.12396646     0.43520
C841        C  0.08525355  0.36051629  0.18825307    -0.05540
C842        C  0.08253157  0.35779528  0.15015688    -0.32970
C843        C  0.08734192  0.38868164  0.12790962     0.36280
C844        C  0.09609049  0.42255896  0.14387881    -0.05900
C845        C  0.09796557  0.42516839  0.18208308    -0.32870
C846        C  0.09196924  0.39467268  0.20419588     0.36190
H847        H  0.07577051  0.33186109  0.13768930     0.16560
O848        O  0.08184524  0.38609391  0.09092584    -0.60360
H849        H  0.10498105  0.45089187  0.19483311     0.16570
O850        O  0.09422619  0.39819162  0.24138004    -0.60460
H851        H  0.07001263  0.40746608  0.24911171     0.43570
H852        H  0.09748355  0.36577576  0.08233920     0.43520
C853        C  0.20289261  0.35908164  0.08129623    -0.05540
C854        C  0.20196425  0.37730086  0.11484834    -0.32970
C855        C  0.18013730  0.40844870  0.11948929     0.36280
C856        C  0.15805397  0.42107099  0.09056613    -0.05900
C857        C  0.15919448  0.40241478  0.05710722    -0.32870
C858        C  0.18163338  0.37205958  0.05223544     0.36190
H859        H  0.21861067  0.36771832  0.13729609     0.16560
O860        O  0.18159105  0.42732351  0.15180958    -0.60360
H861        H  0.14222652  0.41048739  0.03462413     0.16570
O862        O  0.18148309  0.35430432  0.01930618    -0.60460
H863        H  0.19583614  0.37015706  0.00272771     0.43570
H864        H  0.17306793  0.41005931  0.17082767     0.43520
C865        C  0.97079302  0.49022586  0.13454709    -0.05540
C866        C  0.98955488  0.49479921  0.10166481    -0.32970
C867        C  0.02749601  0.49476558  0.10042159     0.36280
C868        C  0.04808330  0.48974983  0.13245888    -0.05900
C869        C  0.02947674  0.48537432  0.16585783    -0.32870
C870        C  0.99086377  0.48542322  0.16698094     0.36190
H871        H  0.97455935  0.49867384  0.07652805     0.16560
O872        O  0.04444747  0.50046391  0.06758896    -0.60360
H873        H  0.04470944  0.48202552  0.19090401     0.16570
O874        O  0.97313201  0.48119169  0.19964354    -0.60460
H875        H  0.97205567  0.45449187  0.20372968     0.43570
H876        H  0.03848720  0.52576961  0.06025049     0.43520
C877        C  0.09226910  0.61798497  0.80694710    -0.05540
C878        C  0.09379341  0.62175312  0.84492488    -0.32970
C879        C  0.10026692  0.59156839  0.86712518     0.36280
C880        C  0.10772164  0.55725500  0.85125306    -0.05900
C881        C  0.10650954  0.55374186  0.81307540    -0.32870
C882        C  0.09841055  0.58374363  0.79098083     0.36190
H883        H  0.08790576  0.64781978  0.85754499     0.16560
O884        O  0.09624806  0.59527771  0.90412487    -0.60360
H885        H  0.11145696  0.52752482  0.80042329     0.16570
O886        O  0.09643320  0.57933257  0.75388424    -0.60460
H887        H  0.12143951  0.58436877  0.74480430     0.43570
H888        H  0.07005560  0.59055182  0.90907035     0.43520
C889        C  0.16488515  0.55507650  0.90792712    -0.05540
C890        C  0.16201754  0.57470377  0.94063366    -0.32970
C891        C  0.18215817  0.60667187  0.94565883     0.36280
C892        C  0.20519233  0.61941770  0.91768181    -0.05900
C893        C  0.20869981  0.59954713  0.88536750    -0.32870
C894        C  0.18896667  0.56724500  0.88048412     0.36190
H895        H  0.14338138  0.56579369  0.96180857     0.16560
O896        O  0.17881047  0.62559551  0.97775137    -0.60360
H897        H  0.22692152  0.60894536  0.86403928     0.16570
O898        O  0.19357426  0.54733564  0.84908919    -0.60460
H899        H  0.18409966  0.56285053  0.82907550     0.43570
H900        H  0.15875345  0.64321636  0.97354805     0.43520
C901        C  0.11274975  0.42901326  0.83865261    -0.05540
C902        C  0.13989970  0.40199383  0.83469451    -0.32970
C903        C  0.13319164  0.36943277  0.81598702     0.36280
C904        C  0.09982176  0.36427950  0.79786290    -0.05900
C905        C  0.07637245  0.39421350  0.79453860    -0.32870
C906        C  0.08352546  0.42688422  0.81308571     0.36190
H907        H  0.16685702  0.40559097  0.84570253     0.16560
O908        O  0.15964894  0.34305763  0.81565575    -0.60360
H909        H  0.05216744  0.39236833  0.77766832     0.16570
O910        O  0.06240494  0.45639451  0.80455819    -0.60460
H911        H  0.07593238  0.46937607  0.78504072     0.43570
H912        H  0.17393127  0.34759511  0.79311317     0.43520
C913        C  0.20210924  0.36121821  0.92437126    -0.05540
C914        C  0.22014178  0.39421364  0.91821730    -0.32970
C915        C  0.20046074  0.42556778  0.90981314     0.36280
C916        C  0.16192845  0.42459743  0.90899770    -0.05900
C917        C  0.14371943  0.39187989  0.91703196    -0.32870
C918        C  0.16365464  0.36001063  0.92384552     0.36190
H919        H  0.24969574  0.39538873  0.91874450     0.16560
O920        O  0.21918908  0.45676941  0.90100105    -0.60360
H921        H  0.11417828  0.39085082  0.91676810     0.16570
O922        O  0.14540250  0.32816674  0.93115719    -0.60460
H923        H  0.13952040  0.31765187  0.90692613     0.43570
H924        H  0.22026448  0.45704833  0.87396136     0.44960
C925        C  0.15114458  0.48752019  0.95832346    -0.05540
C926        C  0.11984475  0.47503793  0.97622647    -0.32970
C927        C  0.11821052  0.47317434  0.01412919     0.36280
C928        C  0.14791805  0.48498576  0.03558167    -0.05900
C929        C  0.17988584  0.49685206  0.01782738    -0.32870
C930        C  0.18177168  0.49791768  0.97927130     0.36190
H931        H  0.09616645  0.46667832  0.96055291     0.16560
O932        O  0.08721457  0.45961834  0.03017539    -0.60360
H933        H  0.20331387  0.50523069  0.03373161     0.16570
O934        O  0.21357812  0.50825867  0.96235338    -0.60460
H935        H  0.21896466  0.53326231  0.97114556     0.43570
H936        H  0.08475148  0.43405663  0.02170369     0.43520
C937        C  0.05295195  0.49019522  0.86884725    -0.05540
C938        C  0.03236554  0.52228378  0.86566017    -0.32970
C939        C  0.99454908  0.52331103  0.86971058     0.36280
C940        C  0.97384554  0.49072828  0.87180446    -0.05900
C941        C  0.99458568  0.45890534  0.87899796    -0.32870
C942        C  0.03306408  0.45847088  0.87849425     0.36190
H943        H  0.04470705  0.54833428  0.86270738     0.16560
O944        O  0.98005727  0.55649880  0.87834095    -0.60360
H945        H  0.98164312  0.43425785  0.88806064     0.16570
O946        O  0.05068075  0.42764903  0.89036082    -0.60460
H947        H  0.04222825  0.40748839  0.87439973     0.43570
H948        H  0.98649150  0.57314630  0.85793593     0.43520
C949        C  0.57842602  0.89568542  0.84915728    -0.05540
C950        C  0.60448026  0.92130588  0.86060623    -0.32970
C951        C  0.63579859  0.92779913  0.83969156     0.36280
C952        C  0.64142962  0.90834027  0.80709811    -0.05900
C953        C  0.61544021  0.88283345  0.79557519    -0.32870
C954        C  0.58406146  0.87638541  0.81646333     0.36190
H955        H  0.60054191  0.93636703  0.88568307     0.16560
O956        O  0.66076687  0.95319874  0.85124627    -0.60360
H957        H  0.61932641  0.86816987  0.77020588     0.16570
O958        O  0.55861618  0.85170920  0.80443111    -0.60460
H959        H  0.56826012  0.82753209  0.81164716     0.43570
H960        H  0.65254213  0.97661030  0.84052637     0.43520
C961        C  0.57695025  0.84100787  0.90866278    -0.05540
C962        C  0.60858695  0.85716494  0.92298619    -0.32970
C963        C  0.63966153  0.83610818  0.93009884     0.36280
C964        C  0.63918431  0.79834947  0.92324164    -0.05900
C965        C  0.60730306  0.78201107  0.90994206    -0.32870
C966        C  0.57643199  0.80312709  0.90228297     0.36190
H967        H  0.60906724  0.88604312  0.92900199     0.16560
O968        O  0.67013065  0.85251646  0.94438258    -0.60360
H969        H  0.60650249  0.75287898  0.90509272     0.16570
O970        O  0.54579123  0.78653962  0.88856730    -0.60460
H971        H  0.54945012  0.78590950  0.86177411     0.43570
H972        H  0.66764642  0.84989475  0.97120708     0.43520
C973        C  0.44582310  0.90043987  0.85126619    -0.05540
C974        C  0.44146206  0.88369745  0.81711220    -0.32970
C975        C  0.40956242  0.88888683  0.79684683     0.36280
C976        C  0.38153205  0.91089045  0.81078384    -0.05900
C977        C  0.38585527  0.92781159  0.84487520    -0.32870
C978        C  0.41795387  0.92286642  0.86505288     0.36190
H979        H  0.46277977  0.86627646  0.80637113     0.16560
O980        O  0.40591254  0.87223868  0.76354335    -0.60360
H981        H  0.36438684  0.94498800  0.85570720     0.16570
O982        O  0.42180483  0.93980537  0.89817787    -0.60460
H983        H  0.43454509  0.96306857  0.89278680     0.43570
H984        H  0.39440396  0.84832422  0.76882340     0.43520
C985        C  0.44467865  0.84635264  0.90907822    -0.05540
C986        C  0.43612121  0.81738743  0.88553997    -0.32970
C987        C  0.40461726  0.79659613  0.89090469     0.36280
C988        C  0.38181122  0.80397546  0.92071908    -0.05900
C989        C  0.38997959  0.83313946  0.94415440    -0.32870
C990        C  0.42116086  0.85466170  0.93826016     0.36190
H991        H  0.45393233  0.81107901  0.86278088     0.16560
O992        O  0.39657684  0.76878622  0.86720726    -0.60360
H993        H  0.37198791  0.83939438  0.96677973     0.16570
O994        O  0.42823837  0.88394959  0.96050828    -0.60460
H995        H  0.43168435  0.87378369  0.98533879     0.43570
H996        H  0.38165023  0.78016399  0.84773843     0.43520
C997        C  0.57445729  0.90551426  0.14308662    -0.05540
C998        C  0.57392214  0.90433988  0.18143909    -0.32970
C999        C  0.60575394  0.90985424  0.20158730     0.36280
C1000       C  0.63896611  0.91581806  0.18347089    -0.05900
C1001       C  0.63942571  0.91888041  0.14527844    -0.32870
C1002       C  0.60722303  0.91458738  0.12508225     0.36190
H1003       H  0.54912195  0.89685281  0.19572872     0.16560
O1004       O  0.60447911  0.90746594  0.23891688    -0.60360
H1005       H  0.66481148  0.92436475  0.13111121     0.16570
O1006       O  0.60853290  0.91692430  0.08781660    -0.60460
H1007       H  0.60224315  0.94259872  0.08219701     0.43570
H1008       H  0.60893335  0.88140024  0.24451639     0.43520
C1009       C  0.63971517  0.79436528  0.08706447    -0.05540
C1010       C  0.61054734  0.78974590  0.06306015    -0.32970
C1011       C  0.57740733  0.80740652  0.06882236     0.36280
C1012       C  0.57365651  0.83389461  0.09697066    -0.05900
C1013       C  0.60052307  0.83201166  0.12461892    -0.32870
C1014       C  0.63391608  0.81429279  0.11917270     0.36190
H1015       H  0.61285984  0.77140695  0.03998928     0.16560
O1016       O  0.54842617  0.79455848  0.04944032    -0.60360
H1017       H  0.59595473  0.84332288  0.15123572     0.16570
O1018       O  0.65976136  0.81523843  0.14619373    -0.60460
H1019       H  0.67025237  0.84015526  0.14518457     0.43570
H1020       H  0.53834743  0.77424567  0.06421106     0.43520
C1021       C  0.44245244  0.89862840  0.14633138    -0.05540
C1022       C  0.42536653  0.93279471  0.14569171    -0.32970
C1023       C  0.39608159  0.94047034  0.16888559     0.36280
C1024       C  0.38165858  0.91317639  0.19163737    -0.05900
C1025       C  0.39775030  0.87862700  0.19170196    -0.32870
C1026       C  0.42846956  0.87142910  0.16985749     0.36190
H1027       H  0.43462189  0.95377939  0.12728826     0.16560
O1028       O  0.38127020  0.97469096  0.16868053    -0.60360
H1029       H  0.38721621  0.85754064  0.20955145     0.16570
O1030       O  0.44576973  0.83840635  0.17288026    -0.60460
H1031       H  0.42706972  0.81969783  0.16708435     0.43570
H1032       H  0.39666551  0.98896065  0.18577076     0.43520
C1033       C  0.44294391  0.84183204  0.08862608    -0.05540
C1034       C  0.40991431  0.85865273  0.07910003    -0.32970
C1035       C  0.37821893  0.83782436  0.07455236     0.36280
C1036       C  0.37963302  0.79973689  0.07899358    -0.05900
C1037       C  0.41263345  0.78291002  0.08782713    -0.32870
C1038       C  0.44398130  0.80370792  0.09347508     0.36190
H1039       H  0.40874415  0.88792565  0.07535376     0.16560
O1040       O  0.34627270  0.85476023  0.06499856    -0.60360
H1041       H  0.41399984  0.75353539  0.09066846     0.16570
O1042       O  0.47576969  0.78649993  0.10310316    -0.60460
H1043       H  0.47493001  0.78439924  0.13004768     0.43570
H1044       H  0.34588225  0.85441450  0.03794094     0.43520
C1045       C  0.51023939  0.85457779  0.03752474    -0.05540
C1046       C  0.49083028  0.82810998  0.01718165    -0.32970
C1047       C  0.49357205  0.82620413  0.97896521     0.36280
C1048       C  0.51296850  0.85315146  0.95966981    -0.05900
C1049       C  0.53243140  0.87937078  0.97972583    -0.32870
C1050       C  0.53169985  0.87999629  0.01803429     0.36190
H1051       H  0.47559471  0.80699107  0.03080097     0.16560
O1052       O  0.47754486  0.79759375  0.96099444    -0.60360
H1053       H  0.54790350  0.90018283  0.96549331     0.16570
O1054       O  0.55233198  0.90536681  0.03635728    -0.60460
H1055       H  0.54824531  0.92913392  0.02418500     0.43570
H1056       H  0.49757916  0.78004686  0.95636644     0.43520
C1057       C  0.64085470  0.06462378  0.81311654    -0.05540
C1058       C  0.60774907  0.07037873  0.79510983    -0.32970
C1059       C  0.57564078  0.07664826  0.81488739     0.36280
C1060       C  0.57609513  0.07643760  0.85341469    -0.05900
C1061       C  0.60892768  0.06808184  0.87127288    -0.32870
C1062       C  0.64135146  0.06333309  0.85153350     0.36190
H1063       H  0.60696082  0.07112583  0.76556242     0.16560
O1064       O  0.54425181  0.08460845  0.79626672    -0.60360
H1065       H  0.60954828  0.06518554  0.90059463     0.16570
O1066       O  0.67307424  0.05599032  0.86996709    -0.60460
H1067       H  0.68133006  0.07981049  0.87980439     0.43570
H1068       H  0.53645755  0.06130438  0.78496148     0.43520
C1069       C  0.57425055  0.13539148  0.90963014    -0.05540
C1070       C  0.59846367  0.12584298  0.93759709    -0.32970
C1071       C  0.63087290  0.14545182  0.94248213     0.36280
C1072       C  0.63789379  0.17654302  0.92114796    -0.05900
C1073       C  0.61333493  0.18658585  0.89373882    -0.32870
C1074       C  0.58189214  0.16581515  0.88750639     0.36190
H1075       H  0.59306880  0.10211038  0.95435176     0.16560
O1076       O  0.65608842  0.13343100  0.96729190    -0.60360
H1077       H  0.61886639  0.21016723  0.87680341     0.16570
O1078       O  0.55866518  0.17543951  0.85981807    -0.60460
H1079       H  0.56724350  0.16159859  0.83821191     0.43570
H1080       H  0.67196464  0.11638158  0.95355656     0.43520
C1081       C  0.44344777  0.07547692  0.85362623    -0.05540
C1082       C  0.41233006  0.05882452  0.86853786    -0.32970
C1083       C  0.38053708  0.05480577  0.84758561     0.36280
C1084       C  0.38022265  0.06617888  0.81088280    -0.05900
C1085       C  0.41144513  0.08213295  0.79582783    -0.32870
C1086       C  0.44255989  0.08764811  0.81715939     0.36190
H1087       H  0.41263935  0.04915584  0.89643911     0.16560
O1088       O  0.35036572  0.03862215  0.86275585    -0.60360
H1089       H  0.41149798  0.09082611  0.76757001     0.16570
O1090       O  0.47197818  0.10520540  0.80214335    -0.60460
H1091       H  0.46910060  0.13115533  0.80912419     0.43570
H1092       H  0.33637523  0.05885882  0.87398101     0.43520
C1093       C  0.44311292  0.13321241  0.90949534    -0.05540
C1094       C  0.41456151  0.12070679  0.93167002    -0.32970
C1095       C  0.38336615  0.14213601  0.93684326     0.36280
C1096       C  0.38131138  0.17706695  0.92108260    -0.05900
C1097       C  0.40991392  0.18964111  0.89913298    -0.32870
C1098       C  0.44055592  0.16777959  0.89297676     0.36190
H1099       H  0.41643563  0.09433363  0.94480857     0.16560
O1100       O  0.35531315  0.12907632  0.95788105    -0.60360
H1101       H  0.40848438  0.21644272  0.88679598     0.16570
O1102       O  0.46778490  0.18018168  0.87044663    -0.60460
H1103       H  0.48436362  0.19438371  0.88642898     0.43570
H1104       H  0.33882158  0.11633257  0.94061534     0.43520
C1105       C  0.51460183  0.94848763  0.85857762    -0.05540
C1106       C  0.52940404  0.96713652  0.88838393    -0.32970
C1107       C  0.52853922  0.00499668  0.89050459     0.36280
C1108       C  0.51202664  0.02566561  0.86259396    -0.05900
C1109       C  0.49737256  0.00724606  0.83222188    -0.32870
C1110       C  0.49899428  0.96886376  0.82987375     0.36190
H1111       H  0.54080166  0.95206603  0.91111935     0.16560
O1112       O  0.54365310  0.02169391  0.92043279    -0.60360
H1113       H  0.48484571  0.02249770  0.81030939     0.16570
O1114       O  0.48503171  0.95176336  0.79971931    -0.60460
H1115       H  0.50654061  0.94542155  0.78457223     0.43570
H1116       H  0.53113864  0.01106070  0.94197313     0.43520
C1117       C  0.64102009  0.06578086  0.18991838    -0.05540
C1118       C  0.60892825  0.07841516  0.20630711    -0.32970
C1119       C  0.57755734  0.08460645  0.18543773     0.36280
C1120       C  0.57744649  0.07672198  0.14776466    -0.05900
C1121       C  0.60954111  0.06367118  0.13138783    -0.32870
C1122       C  0.64122351  0.05823607  0.15221439     0.36190
H1123       H  0.60837667  0.08404796  0.23532589     0.16560
O1124       O  0.54720047  0.09891282  0.20201908    -0.60360
H1125       H  0.61000598  0.05784683  0.10241302     0.16570
O1126       O  0.67203724  0.04498551  0.13563147    -0.60460
H1127       H  0.67056947  0.01813368  0.13848480     0.43570
H1128       H  0.55005733  0.12572404  0.20012710     0.43520
C1129       C  0.57951100  0.13430647  0.09127687    -0.05540
C1130       C  0.59197275  0.15682310  0.11987208    -0.32970
C1131       C  0.62301430  0.17885856  0.11552791     0.36280
C1132       C  0.64071719  0.18015167  0.08161673    -0.05900
C1133       C  0.62852840  0.15775396  0.05330288    -0.32870
C1134       C  0.59906607  0.13411413  0.05818165     0.36190
H1135       H  0.57753593  0.15730852  0.14565087     0.16560
O1136       O  0.63490762  0.20000768  0.14399029    -0.60360
H1137       H  0.64259946  0.15814297  0.02746066     0.16570
O1138       O  0.59042782  0.11049070  0.03066188    -0.60460
H1139       H  0.60704625  0.08943556  0.03391118     0.43570
H1140       H  0.65221877  0.18436180  0.15764173     0.43520
C1141       C  0.44498143  0.08135831  0.14626176    -0.05540
C1142       C  0.44135906  0.09880876  0.18016980    -0.32970
C1143       C  0.40951350  0.09465323  0.20096717     0.36280
C1144       C  0.38070523  0.07314341  0.18771173    -0.05900
C1145       C  0.38393487  0.05638636  0.15349677    -0.32870
C1146       C  0.41629916  0.05935723  0.13329656     0.36190
H1147       H  0.46325663  0.11587278  0.19038347     0.16560
O1148       O  0.40664763  0.11192318  0.23402452    -0.60360
H1149       H  0.36166219  0.04005987  0.14290537     0.16570
O1150       O  0.41955824  0.04101509  0.10087855    -0.60460
H1151       H  0.42108268  0.01477986  0.10755889     0.43570
H1152       H  0.39518519  0.13577660  0.22854286     0.43520
C1153       C  0.44756074  0.13675238  0.08809696    -0.05540
C1154       C  0.41751081  0.12154816  0.07000095    -0.32970
C1155       C  0.38516103  0.14134714  0.06621302     0.36280
C1156       C  0.38330446  0.17751396  0.07896585    -0.05900
C1157       C  0.41399787  0.19347641  0.09516205    -0.32870
C1158       C  0.44582113  0.17308567  0.10039292     0.36190
H1159       H  0.41897986  0.09415601  0.05924045     0.16560
O1160       O  0.35540168  0.12490304  0.05051962    -0.60360
H1161       H  0.41291994  0.22143069  0.10465555     0.16570
O1162       O  0.47497200  0.18869902  0.11794310    -0.60460
H1163       H  0.47235026  0.18140632  0.14387266     0.43570
H1164       H  0.35192533  0.13743612  0.02684962     0.43520
C1165       C  0.50783127  0.95092937  0.13417563    -0.05540
C1166       C  0.51448652  0.96934747  0.16729389    -0.32970
C1167       C  0.51518448  0.00784296  0.16862770     0.36280
C1168       C  0.50868423  0.02825796  0.13669499    -0.05900
C1169       C  0.49981524  0.00955266  0.10461491    -0.32870
C1170       C  0.50023297  0.97157557  0.10279636     0.36190
H1171       H  0.51879421  0.95408370  0.19213386     0.16560
O1172       O  0.52148125  0.02494888  0.20123043    -0.60360
H1173       H  0.49194369  0.02454602  0.08062548     0.16570
O1174       O  0.49091938  0.95449758  0.07071454    -0.60460
H1175       H  0.50563321  0.96623767  0.05127408     0.43570
H1176       H  0.49697052  0.03160835  0.21057445     0.43520
C1177       C  0.51264474  0.12394345  0.03812504    -0.05540
C1178       C  0.50621854  0.15670097  0.01906698    -0.32970
C1179       C  0.50454100  0.15695752  0.98039767     0.36280
C1180       C  0.50923793  0.12421595  0.96072897    -0.05900
C1181       C  0.51439969  0.09188762  0.98011873    -0.32870
C1182       C  0.51644057  0.09149841  0.01799503     0.36190
H1183       H  0.50251493  0.18186093  0.03406202     0.16560
O1184       O  0.49865031  0.18906554  0.96226542    -0.60360
H1185       H  0.51705389  0.06648877  0.96563377     0.16570
O1186       O  0.52243217  0.05896404  0.03529350    -0.60460
H1187       H  0.54820688  0.05251347  0.03023536     0.43570
H1188       H  0.47200196  0.19339828  0.96412644     0.43520
C1189       C  0.92357107  0.84343515  0.56413702    -0.05540
C1190       C  0.94176827  0.85892939  0.59403295    -0.32970
C1191       C  0.94636134  0.83898845  0.62636733     0.36280
C1192       C  0.93396481  0.80267672  0.62843525    -0.05900
C1193       C  0.91645254  0.78702213  0.59847288    -0.32870
C1194       C  0.91068868  0.80728383  0.56660842     0.36190
H1195       H  0.95186531  0.88664281  0.59247099     0.16560
O1196       O  0.96345717  0.85494829  0.65557623    -0.60360
H1197       H  0.90638312  0.75927076  0.60010368     0.16570
O1198       O  0.89104612  0.79224911  0.53850146    -0.60460
H1199       H  0.90305741  0.76871258  0.53279827     0.43570
H1200       H  0.94386010  0.86786217  0.66904170     0.43520
C1201       C  0.86480185  0.89727135  0.56425515    -0.05540
C1202       C  0.87794211  0.92046333  0.59165072    -0.32970
C1203       C  0.85730213  0.92666445  0.62321928     0.36280
C1204       C  0.82280001  0.91021243  0.62715893    -0.05900
C1205       C  0.80986823  0.88666317  0.60003032    -0.32870
C1206       C  0.83079390  0.87991744  0.56878928     0.36190
H1207       H  0.90415971  0.93375302  0.58846649     0.16560
O1208       O  0.87067495  0.94938296  0.64975589    -0.60360
H1209       H  0.78348274  0.87362170  0.60303348     0.16570
O1210       O  0.81801875  0.85608756  0.54291766    -0.60460
H1211       H  0.80406090  0.87131721  0.52548775     0.43570
H1212       H  0.88439544  0.93330434  0.66660602     0.43520
C1213       C  0.86225809  0.89426799  0.43141177    -0.05540
C1214       C  0.86505230  0.92640810  0.41074192    -0.32970
C1215       C  0.84401554  0.93133618  0.37932486     0.36280
C1216       C  0.82067185  0.90339871  0.36720519    -0.05900
C1217       C  0.81850850  0.87081745  0.38699321    -0.32870
C1218       C  0.83864048  0.86637472  0.41922586     0.36190
H1219       H  0.88400323  0.94761286  0.41809675     0.16560
O1220       O  0.84664312  0.96354156  0.36045790    -0.60360
H1221       H  0.80066702  0.84909683  0.37781876     0.16570
O1222       O  0.83541713  0.83445137  0.43844145    -0.60460
H1223       H  0.81746318  0.83967408  0.45800470     0.43570
H1224       H  0.86620619  0.95957349  0.34218105     0.43520
C1225       C  0.93777692  0.80017757  0.36883455    -0.05540
C1226       C  0.92660529  0.78311358  0.40100362    -0.32970
C1227       C  0.91933661  0.80361293  0.43230230     0.36280
C1228       C  0.92343612  0.84181254  0.43187090    -0.05900
C1229       C  0.93497637  0.85894802  0.39959106    -0.32870
C1230       C  0.94232008  0.83831675  0.36819770     0.36190
H1231       H  0.92306538  0.75378102  0.40174716     0.16560
O1232       O  0.90668863  0.78619608  0.46282538    -0.60360
H1233       H  0.93837874  0.88827265  0.39880461     0.16570
O1234       O  0.95451084  0.85553462  0.33728301    -0.60460
H1235       H  0.98152106  0.85433806  0.33865326     0.43570
H1236       H  0.92822636  0.77336218  0.47294282     0.43520
C1237       C  0.93056995  0.18014226  0.62972748    -0.05540
C1238       C  0.93795600  0.14267959  0.63083379    -0.32970
C1239       C  0.93339851  0.12101803  0.59959676     0.36280
C1240       C  0.91980552  0.13681040  0.56734449    -0.05900
C1241       C  0.91233758  0.17435695  0.56653510    -0.32870
C1242       C  0.91843650  0.19610992  0.59718856     0.36190
H1243       H  0.94887005  0.13055885  0.65547994     0.16560
O1244       O  0.94475384  0.08535098  0.59981300    -0.60360
H1245       H  0.90214516  0.18691551  0.54180199     0.16570
O1246       O  0.91192349  0.23286900  0.59531094    -0.60460
H1247       H  0.93477731  0.24362982  0.58553800     0.43570
H1248       H  0.93350765  0.07393757  0.62164080     0.43520
C1249       C  0.86635734  0.07650125  0.56523215    -0.05540
C1250       C  0.83984736  0.10247019  0.57485414    -0.32970
C1251       C  0.81897604  0.09845556  0.60656642     0.36280
C1252       C  0.82362730  0.06761579  0.62863756    -0.05900
C1253       C  0.84963615  0.04128286  0.61893111    -0.32870
C1254       C  0.87124323  0.04566776  0.58753110     0.36190
H1255       H  0.83597920  0.12645906  0.55804224     0.16560
O1256       O  0.79379566  0.12458213  0.61555186    -0.60360
H1257       H  0.85374734  0.01775881  0.63624328     0.16570
O1258       O  0.89855858  0.02119048  0.58009518    -0.60460
H1259       H  0.88631633  0.99733651  0.57681499     0.43570
H1260       H  0.80730225  0.14245996  0.63073081     0.43520
C1261       C  0.91013747  0.14811319  0.43666162    -0.05540
C1262       C  0.88296768  0.14822587  0.40920822    -0.32970
C1263       C  0.88846652  0.16580144  0.37566488     0.36280
C1264       C  0.91986420  0.18719345  0.37035195    -0.05900
C1265       C  0.94200761  0.19430783  0.40053324    -0.32870
C1266       C  0.93597449  0.17678572  0.43376233     0.36190
H1267       H  0.85707127  0.13496181  0.41314927     0.16560
O1268       O  0.86292042  0.16178046  0.34866164    -0.60360
H1269       H  0.96371169  0.21434052  0.39885941     0.16570
O1270       O  0.95176192  0.19202592  0.46365198    -0.60460
H1271       H  0.93284546  0.20819976  0.47426744     0.43570
H1272       H  0.84573650  0.18235755  0.35205771     0.43520
C1273       C  0.82614850  0.05785492  0.37207591    -0.05540
C1274       C  0.86429918  0.06065932  0.36895476    -0.32970
C1275       C  0.88599394  0.06782842  0.39980850     0.36280
C1276       C  0.86919734  0.07335759  0.43402649    -0.05900
C1277       C  0.83117407  0.06890366  0.43704925    -0.32870
C1278       C  0.80982110  0.06083434  0.40658862     0.36190
H1279       H  0.87727111  0.05730269  0.34259425     0.16560
O1280       O  0.92323425  0.07034561  0.39630404    -0.60360
H1281       H  0.81774079  0.07310761  0.46306415     0.16570
O1282       O  0.77266437  0.05824502  0.41044766    -0.60460
H1283       H  0.76821675  0.03348470  0.42037909     0.43570
H1284       H  0.92784839  0.09148717  0.38008076     0.43520
C1285       C  0.87338244  0.94792926  0.49708114    -0.05540
C1286       C  0.90313841  0.96614382  0.48184486    -0.32970
C1287       C  0.90430610  0.00387440  0.47927805     0.36280
C1288       C  0.87804341  0.02554397  0.49718501    -0.05900
C1289       C  0.84751466  0.00765677  0.51253552    -0.32870
C1290       C  0.84487427  0.96900383  0.51225794     0.36190
H1291       H  0.92522459  0.95077225  0.46982169     0.16560
O1292       O  0.93151800  0.01915400  0.45876568    -0.60360
H1293       H  0.82583520  0.02352436  0.52477504     0.16570
O1294       O  0.81431248  0.95232665  0.52602701    -0.60460
H1295       H  0.81364243  0.95881879  0.55229440     0.43570
H1296       H  0.92815571  0.00965394  0.43364281     0.43520
C1297       C  0.15610931  0.07510115  0.56396824    -0.05540
C1298       C  0.13926831  0.06475678  0.59681826    -0.32970
C1299       C  0.15993124  0.06009933  0.62865859     0.36280
C1300       C  0.19810080  0.06444392  0.62756171    -0.05900
C1301       C  0.21500564  0.07421513  0.59475667    -0.32870
C1302       C  0.19427559  0.08022200  0.56320596     0.36190
H1303       H  0.10997128  0.06089585  0.59787585     0.16560
O1304       O  0.14276572  0.05009564  0.66038870    -0.60360
H1305       H  0.24432175  0.07807945  0.59382944     0.16570
O1306       O  0.21094103  0.09375783  0.53243032    -0.60460
H1307       H  0.23097283  0.07664546  0.52637238     0.43570
H1308       H  0.13473818  0.07329766  0.67171848     0.43520
C1309       C  0.10084337  0.13376278  0.56582343    -0.05540
C1310       C  0.06832549  0.13040385  0.58578635    -0.32970
C1311       C  0.06209022  0.15237009  0.61641276     0.36280
C1312       C  0.08912451  0.17698789  0.62819252    -0.05900
C1313       C  0.12181868  0.17991904  0.60871681    -0.32870
C1314       C  0.12761770  0.15885345  0.57737342     0.36190
H1315       H  0.04762093  0.11104417  0.57736241     0.16560
O1316       O  0.02987867  0.14903676  0.63516463    -0.60360
H1317       H  0.14263887  0.19901288  0.61748291     0.16570
O1318       O  0.15890287  0.16378695  0.55732662    -0.60460
H1319       H  0.17919354  0.15597625  0.57340559     0.43570
H1320       H  0.01299419  0.16632316  0.62307582     0.43520
C1321       C  0.08475077  0.17689446  0.37028249    -0.05540
C1322       C  0.06946368  0.14190800  0.37344561    -0.32970
C1323       C  0.07538082  0.12087620  0.40490489     0.36280
C1324       C  0.09678312  0.13492823  0.43349720    -0.05900
C1325       C  0.11174097  0.17001983  0.43033422    -0.32870
C1326       C  0.10612204  0.19083025  0.39884524     0.36190
H1327       H  0.05263182  0.13109272  0.35167628     0.16560
O1328       O  0.06033979  0.08671373  0.40748688    -0.60360
H1329       H  0.12839068  0.18101258  0.45215644     0.16570
O1330       O  0.12157797  0.22479854  0.39621169    -0.60460
H1331       H  0.14562143  0.22076862  0.38443885     0.43570
H1332       H  0.03426781  0.09078737  0.41350499     0.43520
C1333       C  0.15512664  0.08011749  0.43210772    -0.05540
C1334       C  0.14860801  0.05098791  0.40820410    -0.32970
C1335       C  0.16992583  0.04663772  0.37675195     0.36280
C1336       C  0.19767460  0.07195780  0.36861388    -0.05900
C1337       C  0.20414596  0.10110018  0.39235171    -0.32870
C1338       C  0.18333421  0.10506224  0.42414634     0.36190
H1339       H  0.12695520  0.03173250  0.41368482     0.16560
O1340       O  0.16297939  0.01802182  0.35368937    -0.60360
H1341       H  0.22558343  0.12059827  0.38639782     0.16570
O1342       O  0.19044013  0.13366697  0.44718451    -0.60460
H1343       H  0.20987382  0.12479318  0.46374084     0.43570
H1344       H  0.17832592  0.99777599  0.36285251     0.43520
C1345       C  0.97068465  0.12834445  0.50162844    -0.05540
C1346       C  0.99151912  0.15851452  0.51395500    -0.32970
C1347       C  0.03006535  0.15831805  0.51167639     0.36280
C1348       C  0.04830666  0.12645782  0.50044904    -0.05900
C1349       C  0.02750177  0.09555008  0.49264800    -0.32870
C1350       C  0.98965402  0.09610879  0.49393660     0.36190
H1351       H  0.97801937  0.18263673  0.52424755     0.16560
O1352       O  0.04942624  0.18889400  0.52108286    -0.60360
H1353       H  0.04070177  0.07017248  0.48649393     0.16570
O1354       O  0.97148722  0.06390594  0.49061324    -0.60460
H1355       H  0.96974858  0.05406941  0.51578392     0.43570
H1356       H  0.05523663  0.20106287  0.49762091     0.43520
C1357       C  0.10143443  0.84221540  0.56826585    -0.05540
C1358       C  0.12505738  0.81349335  0.57704833    -0.32970
C1359       C  0.11948141  0.79288244  0.60856043     0.36280
C1360       C  0.08946401  0.80035466  0.63104233    -0.05900
C1361       C  0.06631395  0.82968576  0.62291938    -0.32870
C1362       C  0.07245007  0.85102551  0.59180472     0.36190
H1363       H  0.14779561  0.80703851  0.55926840     0.16560
O1364       O  0.14272687  0.76473618  0.61654211    -0.60360
H1365       H  0.04334305  0.83577905  0.64052863     0.16570
O1366       O  0.05015848  0.88014876  0.58439697    -0.60460
H1367       H  0.02572304  0.86964860  0.57934733     0.43570
H1368       H  0.16210867  0.77573877  0.63190364     0.43520
C1369       C  0.15574067  0.89973288  0.56690263    -0.05540
C1370       C  0.19012656  0.88329569  0.57028251    -0.32970
C1371       C  0.21102188  0.88821367  0.60178577     0.36280
C1372       C  0.19748176  0.90959877  0.63046450    -0.05900
C1373       C  0.16322855  0.92640985  0.62706791    -0.32870
C1374       C  0.14241717  0.92177122  0.59529231     0.36190
H1375       H  0.20053174  0.86621152  0.54851769     0.16560
O1376       O  0.24455368  0.87187545  0.60442529    -0.60360
H1377       H  0.15277222  0.94324735  0.64899536     0.16570
O1378       O  0.10909722  0.93845651  0.59235888    -0.60460
H1379       H  0.11408346  0.96193829  0.57988801     0.43570
H1380       H  0.23973176  0.84772219  0.61560254     0.43520
C1381       C  0.11190330  0.82924159  0.43638741    -0.05540
C1382       C  0.13855996  0.82896219  0.40845476    -0.32970
C1383       C  0.13248004  0.81172441  0.37488901     0.36280
C1384       C  0.10093404  0.79053830  0.36983610    -0.05900
C1385       C  0.07846655  0.78418050  0.39997407    -0.32870
C1386       C  0.08490885  0.80150254  0.43327354     0.36190
H1387       H  0.16493499  0.84119594  0.41220501     0.16560
O1388       O  0.15841947  0.81455078  0.34805041    -0.60360
H1389       H  0.05620000  0.76477869  0.39822775     0.16570
O1390       O  0.06776948  0.78713465  0.46295491    -0.60460
H1391       H  0.08553496  0.76979607  0.47367348     0.43570
H1392       H  0.15611163  0.83973049  0.33845006     0.43520
C1393       C  0.15681625  0.90207040  0.43581280    -0.05540
C1394       C  0.19512269  0.90336927  0.43767085    -0.32970
C1395       C  0.21596017  0.91139469  0.40680959     0.36280
C1396       C  0.19866241  0.91812892  0.37333741    -0.05900
C1397       C  0.16032503  0.91847343  0.37162169    -0.32870
C1398       C  0.13933236  0.91135875  0.40290098     0.36190
H1399       H  0.20896891  0.89652475  0.46286795     0.16560
O1400       O  0.25331150  0.91129105  0.40932618    -0.60360
H1401       H  0.14672640  0.92454513  0.34610134     0.16570
O1402       O  0.10198994  0.91174902  0.40068122    -0.60460
H1403       H  0.09475444  0.93654658  0.40863496     0.43570
H1404       H  0.26071063  0.88596260  0.40345660     0.43520
C1405       C  0.14530837  0.94858831  0.49948752    -0.05540
C1406       C  0.11418971  0.96737374  0.48816617    -0.32970
C1407       C  0.11368001  0.00530610  0.48638284     0.36280
C1408       C  0.14459422  0.02589532  0.49645895    -0.05900
C1409       C  0.17627324  0.00711903  0.50736910    -0.32870
C1410       C  0.17674791  0.96861626  0.50905881     0.36190
H1411       H  0.08968720  0.95240012  0.48100049     0.16560
O1412       O  0.08197529  0.02222395  0.47633547    -0.60360
H1413       H  0.20059610  0.02202417  0.51465772     0.16570
O1414       O  0.20807273  0.95092132  0.51918532    -0.60460
H1415       H  0.21148731  0.95674354  0.54539292     0.43570
H1416       H  0.07739627  0.01499206  0.45067048     0.43520
C1417       C  0.97426308  0.85223050  0.49651311    -0.05540
C1418       C  0.99193335  0.82441027  0.51603889    -0.32970
C1419       C  0.03036693  0.82266005  0.51775254     0.36280
C1420       C  0.05205379  0.84867142  0.49894052    -0.05900
C1421       C  0.03421722  0.87563915  0.47861241    -0.32870
C1422       C  0.99609904  0.87797107  0.47780814     0.36190
H1423       H  0.97611637  0.80388368  0.53012201     0.16560
O1424       O  0.04650361  0.79518985  0.53740944    -0.60360
H1425       H  0.05000983  0.89616347  0.46432801     0.16570
O1426       O  0.98042859  0.90662045  0.45965833    -0.60460
H1427       H  0.98532026  0.92830690  0.47507937     0.43570
H1428       H  0.03766248  0.77199007  0.52665802     0.43520
loop_ 
_geom_bond_atom_site_label_1 
_geom_bond_atom_site_label_2 
_geom_bond_distance 
_geom_bond_site_symmetry_2 
_ccdc_geom_bond_type 
C1            C2   1.408       .  A
C1            C6   1.397       .  A
C1         C1369   1.479       .  S
C2            C3   1.414       .  A
C2         C1357   1.473       .  S
C3            C4   1.433       .  A
C3         C1420   1.508       .  S
C4            C5   1.446       .  A
C4         C1381   1.537       .  S
C5            C6   1.414       .  A
C5         C1393   1.487       .  S
C6         C1405   1.491       .  S
C7            C8   1.412       .  A
C7           C12   1.416       .  A
C7         C1333   1.484       .  S
C8            C9   1.415       .  A
C8         C1408   1.498       .  S
C9           C10   1.423       .  A
C9         C1297   1.489       .  S
C10          C11   1.412       .  A
C10        C1309   1.484       .  S
C11          C12   1.411       .  A
C11        C1348   1.492       .  S
C12        C1324   1.483       .  S
C13          C14   1.405       .  A
C13          C18   1.420       .  A
C13        C1240   1.485       .  S
C14          C15   1.433       .  A
C14        C1345   1.511       .  S
C15          C16   1.447       .  A
C15        C1261   1.536       .  S
C16          C17   1.422       .  A
C16        C1276   1.494       .  S
C17          C18   1.417       .  A
C17        C1288   1.512       .  S
C18        C1249   1.487       .  S
C19          C20   1.415       .  A
C19          C24   1.420       .  A
C19        C1228   1.489       .  S
C20          C21   1.414       .  A
C20        C1417   1.504       .  S
C21          C22   1.418       .  A
C21        C1189   1.486       .  S
C22          C23   1.413       .  A
C22        C1201   1.480       .  S
C23          C24   1.421       .  A
C23        C1285   1.498       .  S
C24        C1213   1.493       .  S
C25          C26   1.409       .  A
C25          C30   1.416       .  A
C25        C1153   1.481       .  S
C26          C27   1.419       .  A
C26        C1177   1.495       .  S
C27          C28   1.424       .  A
C27        C1129   1.493       .  S
C28          C29   1.415       .  A
C28        C1120   1.490       .  S
C29          C30   1.409       .  A
C29        C1168   1.494       .  S
C30        C1141   1.484       .  S
C31          C32   1.408       .  A
C31          C36   1.419       .  A
C31        C1093   1.479       .  S
C32          C33   1.411       .  A
C32        C1180   1.493       .  S
C33          C34   1.421       .  A
C33        C1069   1.477       .  S
C34          C35   1.412       .  A
C34        C1060   1.497       .  S
C35          C36   1.414       .  A
C35        C1108   1.495       .  S
C36        C1081   1.485       .  S
C37          C38   1.410       .  A
C37          C42   1.418       .  A
C37        C1021   1.496       .  S
C38          C39   1.417       .  A
C38        C1165   1.496       .  S
C39          C40   1.444       .  A
C39         C997   1.487       .  S
C40          C41   1.426       .  A
C40        C1012   1.535       .  S
C41          C42   1.415       .  A
C41        C1045   1.515       .  S
C42        C1033   1.480       .  S
C43          C44   1.407       .  A
C43          C48   1.415       .  A
C43         C973   1.481       .  S
C44          C45   1.413       .  A
C44        C1105   1.491       .  S
C45          C46   1.416       .  A
C45         C949   1.482       .  S
C46          C47   1.414       .  A
C46         C961   1.487       .  S
C47          C48   1.415       .  A
C47        C1048   1.498       .  S
C48         C985   1.479       .  S
C49          C50   1.415       .  A
C49          C54   1.401       .  A
C49         C889   1.479       .  S
C50          C51   1.422       .  A
C50         C880   1.491       .  S
C51          C52   1.425       .  A
C51         C937   1.530       .  S
C52          C53   1.442       .  A
C52         C901   1.534       .  S
C53          C54   1.416       .  A
C53         C916   1.484       .  S
C54         C925   1.491       .  S
C55          C56   1.413       .  A
C55          C60   1.418       .  A
C55         C829   1.486       .  S
C56          C57   1.415       .  A
C56         C928   1.496       .  S
C57          C58   1.425       .  A
C57         C856   1.496       .  S
C58          C59   1.418       .  A
C58         C844   1.491       .  S
C59          C60   1.414       .  A
C59         C868   1.494       .  S
C60         C817   1.491       .  S
C61          C62   1.410       .  A
C61          C66   1.415       .  A
C61         C757   1.480       .  S
C62          C63   1.410       .  A
C62         C865   1.486       .  S
C63          C64   1.416       .  A
C63         C784   1.479       .  S
C64          C65   1.405       .  A
C64         C796   1.480       .  S
C65          C66   1.405       .  A
C65         C808   1.488       .  S
C66         C769   1.477       .  S
C67          C68   1.436       .  A
C67          C72   1.429       .  A
C67         C709   1.515       .  S
C68          C69   1.431       .  A
C68         C940   1.538       .  S
C69          C70   1.420       .  A
C69         C736   1.500       .  S
C70          C71   1.404       .  A
C70         C745   1.486       .  S
C71          C72   1.404       .  A
C71         C805   1.487       .  S
C72         C721   1.480       .  S
C73         C110   1.469       .  S
C73         C600   1.467       .  S
C73          N91   1.342       .  A
N74          N91   1.316       .  A
N74          N96   1.321       .  A
N74        Co111   2.072       .  S
C75         C113   1.451       .  S
C75         N100   1.328       .  A
C75         H120   1.081       .  S
H76         C117   1.082       .  S
C77          C81   1.455       .  S
C77         N101   1.341       .  A
C77         H106   1.081       .  S
Co78         N96   2.099       .  S
Co78         N86   2.095   1_565  S
Co78        N118   2.090       .  S
Co78         N94   2.099   1_565  S
Co78       Cl122   2.499       .  S
N79         C117   1.330       .  A
N79          N86   1.321       .  A
N79         Co80   2.075       .  S
Co80         N83   2.088       .  S
Co80        N100   2.069       .  S
Co80         N87   2.093       .  S
Co80       Cl122   2.400   1_545  S
C81        C1300   1.472       .  S
C81         N119   1.350       .  A
N82          N89   1.318       .  A
N82         N112   1.324       .  A
N82        Co115   2.078       .  S
N83         N101   1.317       .  A
N83         N119   1.326       .  A
N84         C113   1.356       .  A
N84          N94   1.332       .  A
H85         C110   1.081       .  S
N86         N107   1.330       .  A
N87         N105   1.317       .  A
N87          N92   1.326       .  A
C88         C116   1.453       .  S
C88        C1084   1.470       .  S
C88          N92   1.350       .  A
N89         C104   1.342       .  A
N89        Co111   2.089       .  S
C90          C93   1.465       .  S
C90         N118   1.348       .  A
C90         H124   1.081       .  S
C93         C240   1.461       .  S
C93         N114   1.343       .  A
N94         N100   1.320       .  A
N95         C121   1.342       .  A
N95          N97   1.318       .  A
N95        Co111   2.084       .  S
N96         C110   1.351       .  A
N97         N125   1.325       .  A
N97        Co115   2.081       .  S
H98         C121   1.081       .  S
H99         C116   1.081       .  S
N101       Co115   2.077   1_545  S
N102        N114   1.316       .  A
N102        N118   1.321       .  A
N102       Co111   2.077       .  S
C103        C117   1.451       .  S
C103        C126   1.464       .  S
C103        N107   1.355       .  A
C104        C123   1.456       .  S
C104        H108   1.081       .  S
N105        C116   1.340       .  A
N105       Co115   2.072   1_545  S
C109        C121   1.455       .  S
C109        C976   1.468       .  S
C109        N125   1.348       .  A
Co111      Cl122   2.402       .  S
N112        C123   1.347       .  A
C113        C421   1.470       .  S
Co115      Cl122   2.491       .  S
C123       C1372   1.468       .  S
C126        C163   1.466       .  S
C126        N144   1.343       .  A
N127        N144   1.316       .  A
N127        N149   1.320       .  A
N127       Co164   2.075       .  S
C128        C166   1.451       .  S
C128        N153   1.330       .  A
C128        H173   1.082       .  S
H129        C170   1.082       .  S
C130        C134   1.453       .  S
C130        N154   1.339       .  A
C130        H159   1.081       .  S
Co131       N149   2.091       .  S
Co131       N139   2.096   1_455  S
Co131       N171   2.095       .  S
Co131       N147   2.099   1_455  S
Co131      Cl175   2.498       .  S
N132        C170   1.331       .  A
N132        N139   1.321       .  A
N132       Co133   2.079       .  S
Co133       N136   2.084       .  S
Co133       N153   2.071       .  S
Co133       N140   2.091       .  S
Co133      Cl175   2.406   1_655  S
C134       C1237   1.465       .  S
C134        N172   1.349       .  A
N135        N142   1.319       .  A
N135        N165   1.324       .  A
N135       Co168   2.081       .  S
N136        N154   1.317       .  A
N136        N172   1.325       .  A
N137        C166   1.356       .  A
N137        N147   1.331       .  A
H138        C163   1.081       .  S
N139        N160   1.331       .  A
N140        N158   1.319       .  A
N140        N145   1.325       .  A
C141        C169   1.456       .  S
C141        C733   1.472       .  S
C141        N145   1.350       .  A
N142        C157   1.342       .  A
N142       Co164   2.086       .  S
C143        C146   1.466       .  S
C143        N171   1.349       .  A
C143        H177   1.081       .  S
C146        C431   1.466       .  S
C146        N167   1.345       .  A
N147        N153   1.320       .  A
N148        C174   1.341       .  A
N148        N150   1.317       .  A
N148       Co164   2.084       .  S
N149        C163   1.349       .  A
N150        N178   1.325       .  A
N150       Co168   2.082       .  S
H151        C174   1.080       .  S
H152        C169   1.081       .  S
N154       Co168   2.070   1_655  S
N155        N167   1.317       .  A
N155        N171   1.322       .  A
N155       Co164   2.080       .  S
C156        C170   1.453       .  S
C156        C603   1.468       .  S
C156        N160   1.355       .  A
C157        C176   1.456       .  S
C157        H161   1.081       .  S
N158        C169   1.341       .  A
N158       Co168   2.075   1_655  S
C162        C174   1.464       .  S
C162        C904   1.483       .  S
C162        N178   1.351       .  A
Co164      Cl175   2.412       .  S
N165        C176   1.348       .  A
C166        C512   1.467       .  S
Co168      Cl175   2.480       .  S
C176       C1312   1.469       .  S
C179        C216   1.466       .  S
C179        C388   1.464       .  S
C179        N197   1.343       .  A
N180        N197   1.317       .  A
N180        N202   1.321       .  A
N180       Co217   2.077       .  S
C181        C219   1.454       .  S
C181        N206   1.330       .  A
C181        H226   1.082       .  S
H182        C223   1.082       .  S
C183        C187   1.455       .  S
C183        N207   1.341       .  A
C183        H212   1.081       .  S
Co184       N202   2.092       .  S
Co184       N192   2.096   1_455  S
Co184       N224   2.088       .  S
Co184       N200   2.093   1_455  S
Co184      Cl228   2.494       .  S
N185        C223   1.331       .  A
N185        N192   1.320       .  A
N185       Co186   2.075       .  S
Co186       N189   2.084       .  S
Co186       N206   2.076       .  S
Co186       N193   2.089       .  S
Co186      Cl228   2.408   1_655  S
C187       C1225   1.469       .  S
C187        N225   1.348       .  A
N188        N195   1.316       .  A
N188        N218   1.322       .  A
N188       Co221   2.081       .  S
N189        N207   1.319       .  A
N189        N225   1.325       .  A
N190        C219   1.354       .  A
N190        N200   1.330       .  A
H191        C216   1.081       .  S
N192        N213   1.331       .  A
N193        N211   1.318       .  A
N193        N198   1.326       .  A
C194        C222   1.455       .  S
C194        C760   1.468       .  S
C194        N198   1.349       .  A
N195        C210   1.340       .  A
N195       Co217   2.072       .  S
C196        C199   1.465       .  S
C196        N224   1.348       .  A
C196        H230   1.081       .  S
C199        C268   1.458       .  S
C199        N220   1.342       .  A
N200        N206   1.320       .  A
N201        C227   1.342       .  A
N201        N203   1.317       .  A
N201       Co217   2.084       .  S
N202        C216   1.349       .  A
N203        N231   1.324       .  A
N203       Co221   2.083       .  S
H204        C227   1.081       .  S
H205        C222   1.081       .  S
N207       Co221   2.081   1_655  S
N208        N220   1.314       .  A
N208        N224   1.320       .  A
N208       Co217   2.065       .  S
C209        C223   1.452       .  S
C209        C452   1.468       .  S
C209        N213   1.355       .  A
C210        C229   1.461       .  S
C210        H214   1.080       .  S
N211        C222   1.340       .  A
N211       Co221   2.076   1_655  S
C215        C227   1.458       .  S
C215        C820   1.469       .  S
C215        N231   1.350       .  A
Co217      Cl228   2.410       .  S
N218        C229   1.351       .  A
C219        C676   1.465       .  S
Co221      Cl228   2.479       .  S
C229       C1384   1.480       .  S
C232        C269   1.450       .  S
C232       C1036   1.462       .  S
C232        N250   1.349       .  A
N233        N250   1.325       .  A
N233        N255   1.317       .  A
N233       Co270   2.085       .  S
C234        C272   1.460       .  S
C234        N259   1.343       .  A
C234        H279   1.081       .  S
H235        C276   1.081       .  S
C236        C240   1.465       .  S
C236        N260   1.348       .  A
C236        H265   1.081       .  S
Co237       N255   2.061   1_556  S
Co237       N245   2.085       .  S
Co237       N277   2.082   1_556  S
Co237       N253   2.064       .  S
Co237      Cl281   2.478       .  S
N238        C276   1.340       .  A
N238        N245   1.319       .  A
N238       Co239   2.079       .  S
Co239       N242   2.078       .  S
Co239       N259   2.088       .  S
Co239       N246   2.075       .  S
Co239      Cl281   2.410       .  S
C240        N278   1.344       .  A
N241        N248   1.320       .  A
N241        N271   1.333       .  A
N241       Co274   2.107       .  S
N242        N260   1.320       .  A
N242        N278   1.316       .  A
N243        C272   1.344       .  A
N243        N253   1.320       .  A
H244        C269   1.081       .  S
N245        N266   1.325       .  A
N246        N264   1.321       .  A
N246        N251   1.317       .  A
C247        C275   1.466       .  S
C247        C586   1.466       .  S
C247        N251   1.344       .  A
N248        C263   1.329       .  A
N248       Co270   2.071       .  S
C249        C252   1.457       .  S
C249        N277   1.342       .  A
C249        H283   1.081       .  S
C252        C832   1.473       .  S
C252        N273   1.349       .  A
N253        N259   1.318       .  A
N254        C280   1.328       .  A
N254        N256   1.319       .  A
N254       Co270   2.068       .  S
N255        C269   1.337       .  A
N256        N284   1.329       .  A
N256       Co274   2.085       .  S
H257        C280   1.082       .  S
H258        C275   1.081       .  S
N260       Co274   2.087   1_556  S
N261        N273   1.326       .  A
N261        N277   1.318       .  A
N261       Co270   2.089       .  S
C262        C276   1.453       .  S
C262        C988   1.465       .  S
C262        N266   1.349       .  A
C263        C282   1.450       .  S
C263        H267   1.081       .  S
N264        C275   1.349       .  A
N264       Co274   2.097   1_556  S
C268        C280   1.451       .  S
C268        N284   1.353       .  A
Co270      Cl281   2.402   1_554  S
N271        C282   1.358       .  A
C272        C892   1.462       .  S
Co274      Cl281   2.498   1_554  S
C282        C374   1.474       .  S
C285        C322   1.454       .  S
C285       C1321   1.471       .  S
C285        N303   1.350       .  A
N286        N303   1.327       .  A
N286        N308   1.318       .  A
N286       Co323   2.096       .  S
C287        C325   1.456       .  S
C287        N312   1.341       .  A
C287        H332   1.081       .  S
H288        C329   1.080       .  S
C289        C293   1.465       .  S
C289        N313   1.349       .  A
C289        H318   1.081       .  S
Co290       N308   2.076       .  S
Co290       N298   2.076   1_455  S
Co290       N330   2.073       .  S
Co290       N306   2.076   1_455  S
Co290      Cl334   2.481       .  S
N291        C329   1.342       .  A
N291        N298   1.316       .  A
N291       Co292   2.078       .  S
Co292       N295   2.077       .  S
Co292       N312   2.084       .  S
Co292       N299   2.069       .  S
Co292      Cl334   2.409   1_655  S
C293        C494   1.463       .  S
C293        N331   1.344       .  A
N294        N301   1.320       .  A
N294        N324   1.331       .  A
N294       Co327   2.095       .  S
N295        N313   1.321       .  A
N295        N331   1.316       .  A
N296        C325   1.346       .  A
N296        N306   1.323       .  A
H297        C322   1.081       .  S
N298        N319   1.321       .  A
N299        N317   1.320       .  A
N299        N304   1.314       .  A
C300        C328   1.467       .  S
C300        C533   1.463       .  S
C300        N304   1.342       .  A
N301        C316   1.330       .  A
N301       Co323   2.075       .  S
C302        C305   1.454       .  S
C302        N330   1.340       .  A
C302        H336   1.081       .  S
C305        C841   1.474       .  S
C305        N326   1.352       .  A
N306        N312   1.318       .  A
N307        C333   1.331       .  A
N307        N309   1.321       .  A
N307       Co323   2.076       .  S
N308        C322   1.341       .  A
N309        N337   1.330       .  A
N309       Co327   2.096       .  S
H310        C333   1.082       .  S
H311        C328   1.081       .  S
N313       Co327   2.091   1_655  S
N314        N326   1.327       .  A
N314        N330   1.317       .  A
N314       Co323   2.092       .  S
C315        C329   1.463       .  S
C315       C1264   1.479       .  S
C315        N319   1.350       .  A
C316        C335   1.452       .  S
C316        H320   1.082       .  S
N317        C328   1.350       .  A
N317       Co327   2.093   1_655  S
C321        C333   1.452       .  S
C321        C411   1.466       .  S
C321        N337   1.355       .  A
Co323      Cl334   2.407       .  S
N324        C335   1.355       .  A
C325        C781   1.464       .  S
Co327      Cl334   2.494       .  S
C335        C346   1.466       .  S
C338        C375   1.454       .  S
C338       C1396   1.472       .  S
C338        N356   1.349       .  A
N339        N356   1.326       .  A
N339        N361   1.318       .  A
N339       Co376   2.087       .  S
C340        C378   1.455       .  S
C340        N365   1.341       .  A
C340        H385   1.081       .  S
H341        C382   1.081       .  S
C342        C346   1.468       .  S
C342        N366   1.351       .  A
C342        H371   1.081       .  S
Co343       N361   2.080       .  S
Co343       N351   2.079   1_565  S
Co343       N383   2.073       .  S
Co343       N359   2.090   1_565  S
Co343      Cl387   2.481       .  S
N344        C382   1.343       .  A
N344        N351   1.317       .  A
N344       Co345   2.088       .  S
Co345       N348   2.071       .  S
Co345       N365   2.082       .  S
Co345       N352   2.073       .  S
Co345      Cl387   2.407   1_545  S
C346        N384   1.342       .  A
N347        N354   1.320       .  A
N347        N377   1.330       .  A
N347       Co380   2.091       .  S
N348        N366   1.320       .  A
N348        N384   1.315       .  A
N349        C378   1.351       .  A
N349        N359   1.326       .  A
H350        C375   1.081       .  S
N351        N372   1.324       .  A
N352        N370   1.320       .  A
N352        N357   1.315       .  A
C353        C381   1.466       .  S
C353        C391   1.460       .  S
C353        N357   1.342       .  A
N354        C369   1.331       .  A
N354       Co376   2.076       .  S
C355        C358   1.457       .  S
C355        N383   1.339       .  A
C355        H389   1.081       .  S
C358       C1024   1.475       .  S
C358        N379   1.352       .  A
N359        N365   1.318       .  A
N360        C386   1.330       .  A
N360        N362   1.321       .  A
N360       Co376   2.078       .  S
N361        C375   1.341       .  A
N362        N390   1.332       .  A
N362       Co380   2.102       .  S
H363        C386   1.081       .  S
H364        C381   1.081       .  S
N366       Co380   2.098   1_545  S
N367        N379   1.327       .  A
N367        N383   1.318       .  A
N367       Co376   2.097       .  S
C368        C382   1.459       .  S
C368       C1336   1.469       .  S
C368        N372   1.347       .  A
C369        C388   1.452       .  S
C369        H373   1.082       .  S
N370        C381   1.349       .  A
N370       Co380   2.090   1_545  S
C374        C386   1.455       .  S
C374        N390   1.356       .  A
Co376      Cl387   2.408       .  S
N377        C388   1.354       .  A
C378       C1144   1.471       .  S
Co380      Cl387   2.500       .  S
C391        C428   1.465       .  S
C391        N409   1.344       .  A
N392        N409   1.316       .  A
N392        N414   1.321       .  A
N392       Co429   2.077       .  S
C393        C431   1.451       .  S
C393        N418   1.331       .  A
C393        H438   1.082       .  S
H394        C435   1.081       .  S
C395        C399   1.456       .  S
C395        N419   1.341       .  A
C395        H424   1.081       .  S
Co396       N414   2.088   1_556  S
Co396       N404   2.100       .  S
Co396       N436   2.096   1_556  S
Co396       N412   2.095       .  S
Co396      Cl440   2.496   1_556  S
N397        C435   1.327       .  A
N397        N404   1.319       .  A
N397       Co398   2.067       .  S
Co398       N401   2.088       .  S
Co398       N418   2.074       .  S
Co398       N405   2.077       .  S
Co398      Cl440   2.405   1_556  S
C399       C1096   1.468       .  S
C399        N437   1.349       .  A
N400        N407   1.318       .  A
N400        N430   1.324       .  A
N400       Co433   2.079       .  S
N401        N419   1.318       .  A
N401        N437   1.325       .  A
N402        C431   1.355       .  A
N402        N412   1.330       .  A
H403        C428   1.081       .  S
N404        N425   1.332       .  A
N405        N423   1.318       .  A
N405        N410   1.324       .  A
C406        C434   1.455       .  S
C406        C913   1.467       .  S
C406        N410   1.347       .  A
N407        C422   1.341       .  A
N407       Co429   2.084       .  S
C408        C411   1.466       .  S
C408        N436   1.349       .  A
C408        H442   1.081       .  S
C411        N432   1.344       .  A
N412        N418   1.320       .  A
N413        C439   1.343       .  A
N413        N415   1.318       .  A
N413       Co429   2.089       .  S
N414        C428   1.348       .  A
N415        N443   1.324       .  A
N415       Co433   2.081       .  S
H416        C439   1.081       .  S
H417        C434   1.081       .  S
N419       Co433   2.077   1_556  S
N420        N432   1.317       .  A
N420        N436   1.321       .  A
N420       Co429   2.078       .  S
C421        C435   1.451       .  S
C421        N425   1.357       .  A
C422        C441   1.458       .  S
C422        H426   1.081       .  S
N423        C434   1.340       .  A
N423       Co433   2.075   1_556  S
C427        C439   1.459       .  S
C427        C853   1.472       .  S
C427        N443   1.349       .  A
Co429      Cl440   2.407       .  S
N430        C441   1.348       .  A
Co433      Cl440   2.485       .  S
C441       C1156   1.468       .  S
C444        C481   1.455       .  S
C444       C1273   1.474       .  S
C444        N462   1.350       .  A
N445        N462   1.326       .  A
N445        N467   1.318       .  A
N445       Co482   2.091       .  S
C446        C484   1.457       .  S
C446        N471   1.342       .  A
C446        H491   1.080       .  S
H447        C488   1.081       .  S
C448        C452   1.467       .  S
C448        N472   1.350       .  A
C448        H477   1.081       .  S
Co449       N467   2.073   1_565  S
Co449       N457   2.075       .  S
Co449       N489   2.075   1_565  S
Co449       N465   2.074       .  S
Co449      Cl493   2.487       .  S
N450        C488   1.345       .  A
N450        N457   1.317       .  A
N450       Co451   2.093       .  S
Co451       N454   2.079       .  S
Co451       N471   2.088       .  S
Co451       N458   2.073       .  S
Co451      Cl493   2.403       .  S
C452        N490   1.344       .  A
N453        N460   1.320       .  A
N453        N483   1.330       .  A
N453       Co486   2.093   1_545  S
N454        N472   1.322       .  A
N454        N490   1.317       .  A
N455        C484   1.345       .  A
N455        N465   1.323       .  A
H456        C481   1.080       .  S
N457        N478   1.323       .  A
N458        N476   1.320       .  A
N458        N463   1.315       .  A
C459        C487   1.466       .  S
C459        C656   1.460       .  S
C459        N463   1.342       .  A
N460        C475   1.330       .  A
N460       Co482   2.071       .  S
C461        C464   1.454       .  S
C461        N489   1.341       .  A
C461        H495   1.081       .  S
C464       C1117   1.475       .  S
C464        N485   1.352       .  A
N465        N471   1.319       .  A
N466        C492   1.328       .  A
N466        N468   1.320       .  A
N466       Co482   2.071       .  S
N467        C481   1.340       .  A
N468        N496   1.332       .  A
N468       Co486   2.102   1_545  S
H469        C492   1.081       .  S
H470        C487   1.081       .  S
N472       Co486   2.100       .  S
N473        N485   1.328       .  A
N473        N489   1.317       .  A
N473       Co482   2.096       .  S
C474        C488   1.461       .  S
C474       C1216   1.472       .  S
C474        N478   1.347       .  A
C475        C494   1.451       .  S
C475        H479   1.082       .  S
N476        C487   1.349       .  A
N476       Co486   2.088       .  S
C480        C492   1.451       .  S
C480        C547   1.471       .  S
C480        N496   1.357       .  A
Co482      Cl493   2.399   1_545  S
N483        C494   1.355       .  A
C484       C1000   1.469       .  S
Co486      Cl493   2.502       .  S
C497        C534   1.457       .  S
C497       C1132   1.470       .  S
C497        N515   1.352       .  A
N498        N515   1.327       .  A
N498        N520   1.316       .  A
N498       Co535   2.090       .  S
C499        C537   1.460       .  S
C499        N524   1.343       .  A
C499        H544   1.081       .  S
H500        C541   1.081       .  S
C501        C505   1.465       .  S
C501        N525   1.348       .  A
C501        H530   1.081       .  S
Co502       N520   2.071   1_556  S
Co502       N510   2.086       .  S
Co502       N542   2.082   1_556  S
Co502       N518   2.074       .  S
Co502      Cl546   2.477       .  S
N503        C541   1.340       .  A
N503        N510   1.319       .  A
N503       Co504   2.080       .  S
Co504       N507   2.080       .  S
Co504       N524   2.087       .  S
Co504       N511   2.078       .  S
Co504      Cl546   2.414       .  S
C505        C623   1.463       .  S
C505        N543   1.345       .  A
N506        N513   1.321       .  A
N506        N536   1.332       .  A
N506       Co539   2.102       .  S
N507        N525   1.321       .  A
N507        N543   1.317       .  A
N508        C537   1.347       .  A
N508        N518   1.322       .  A
H509        C534   1.081       .  S
N510        N531   1.325       .  A
N511        N529   1.321       .  A
N511        N516   1.317       .  A
C512        C540   1.466       .  S
C512        N516   1.345       .  A
N513        C528   1.328       .  A
N513       Co535   2.071       .  S
C514        C517   1.457       .  S
C514        N542   1.341       .  A
C514        H548   1.081       .  S
C517        C793   1.467       .  S
C517        N538   1.347       .  A
N518        N524   1.318       .  A
N519        C545   1.329       .  A
N519        N521   1.320       .  A
N519       Co535   2.074       .  S
N520        C534   1.337       .  A
N521        N549   1.330       .  A
N521       Co539   2.087       .  S
H522        C545   1.082       .  S
H523        C540   1.081       .  S
N525       Co539   2.089   1_556  S
N526        N538   1.324       .  A
N526        N542   1.318       .  A
N526       Co535   2.077       .  S
C527        C541   1.454       .  S
C527       C1072   1.466       .  S
C527        N531   1.349       .  A
C528        C547   1.452       .  S
C528        H532   1.081       .  S
N529        C540   1.350       .  A
N529       Co539   2.097   1_556  S
C533        C545   1.452       .  S
C533        N549   1.354       .  A
Co535      Cl546   2.411   1_554  S
N536        C547   1.357       .  A
C537        C748   1.469       .  S
Co539      Cl546   2.494   1_554  S
C550        C587   1.453       .  S
C550       C1360   1.461       .  S
C550        N568   1.347       .  A
N551        N568   1.324       .  A
N551        N573   1.318       .  A
N551       Co588   2.078       .  S
C552        C590   1.458       .  S
C552        N577   1.337       .  A
C552        H597   1.080       .  S
H553        C594   1.080       .  S
C554        C558   1.467       .  S
C554        N578   1.350       .  A
C554        H583   1.081       .  S
Co555       N573   2.078       .  S
Co555       N563   2.089   1_455  S
Co555       N595   2.079       .  S
Co555       N571   2.095   1_455  S
Co555      Cl599   2.480       .  S
N556        C594   1.341       .  A
N556        N563   1.318       .  A
N556       Co557   2.076       .  S
Co557       N560   2.069       .  S
Co557       N577   2.080       .  S
Co557       N564   2.072       .  S
Co557      Cl599   2.408   1_655  S
C558        C633   1.462       .  S
C558        N596   1.342       .  A
N559        N566   1.320       .  A
N559        N589   1.331       .  A
N559       Co592   2.093       .  S
N560        N578   1.319       .  A
N560        N596   1.315       .  A
N561        C590   1.356       .  A
N561        N571   1.329       .  A
H562        C587   1.081       .  S
N563        N584   1.325       .  A
N564        N582   1.321       .  A
N564        N569   1.316       .  A
C565        C593   1.466       .  S
C565        C696   1.462       .  S
C565        N569   1.342       .  A
N566        C581   1.331       .  A
N566       Co588   2.077       .  S
C567        C570   1.459       .  S
C567        N595   1.341       .  A
C567        H601   1.081       .  S
C570        C877   1.466       .  S
C570        N591   1.347       .  A
N571        N577   1.317       .  A
N572        C598   1.330       .  A
N572        N574   1.320       .  A
N572       Co588   2.072       .  S
N573        C587   1.339       .  A
N574        N602   1.331       .  A
N574       Co592   2.097       .  S
H575        C598   1.082       .  S
H576        C593   1.081       .  S
N578       Co592   2.091   1_655  S
N579        N591   1.322       .  A
N579        N595   1.319       .  A
N579       Co588   2.078       .  S
C580        C594   1.453       .  S
C580       C1192   1.469       .  S
C580        N584   1.349       .  A
C581        C600   1.453       .  S
C581        H585   1.082       .  S
N582        C593   1.348       .  A
N582       Co592   2.094   1_655  S
C586        C598   1.451       .  S
C586        N602   1.355       .  A
Co588      Cl599   2.406       .  S
N589        C600   1.354       .  A
C590        C712   1.486       .  S
Co592      Cl599   2.499       .  S
C603        C640   1.470       .  S
C603        N621   1.342       .  A
N604        N621   1.316       .  A
N604        N626   1.321       .  A
N604       Co641   2.070       .  S
C605        C643   1.450       .  S
C605        N630   1.328       .  A
C605        H650   1.081       .  S
H606        C647   1.082       .  S
C607        C611   1.457       .  S
C607        N631   1.342       .  A
C607        H636   1.081       .  S
Co608       N626   2.105   1_565  S
Co608       N616   2.089       .  S
Co608       N648   2.091   1_565  S
Co608       N624   2.108       .  S
Co608      Cl652   2.501       .  S
N609        C647   1.329       .  A
N609        N616   1.321       .  A
N609       Co610   2.076       .  S
Co610       N613   2.083       .  S
Co610       N630   2.069       .  S
Co610       N617   2.091       .  S
Co610      Cl652   2.406       .  S
C611       C1204   1.468       .  S
C611        N649   1.348       .  A
N612        N619   1.318       .  A
N612        N642   1.324       .  A
N612       Co645   2.076   1_545  S
N613        N631   1.318       .  A
N613        N649   1.325       .  A
N614        C643   1.358       .  A
N614        N624   1.333       .  A
H615        C640   1.081       .  S
N616        N637   1.330       .  A
N617        N635   1.317       .  A
N617        N622   1.326       .  A
C618        C646   1.454       .  S
C618        C952   1.467       .  S
C618        N622   1.350       .  A
N619        C634   1.344       .  A
N619       Co641   2.093       .  S
C620        C623   1.466       .  S
C620        N648   1.349       .  A
C620        H654   1.081       .  S
C623        N644   1.343       .  A
N624        N630   1.320       .  A
N625        C651   1.340       .  A
N625        N627   1.318       .  A
N625       Co641   2.078       .  S
N626        C640   1.352       .  A
N627        N655   1.326       .  A
N627       Co645   2.088   1_545  S
H628        C651   1.080       .  S
H629        C646   1.081       .  S
N631       Co645   2.083       .  S
N632        N644   1.317       .  A
N632        N648   1.321       .  A
N632       Co641   2.080       .  S
C633        C647   1.452       .  S
C633        N637   1.353       .  A
C634        C653   1.460       .  S
C634        H638   1.081       .  S
N635        C646   1.339       .  A
N635       Co645   2.073       .  S
C639        C651   1.455       .  S
C639       C1057   1.474       .  S
C639        N655   1.350       .  A
Co641      Cl652   2.409   1_545  S
N642        C653   1.346       .  A
C643        C686   1.474       .  S
Co645      Cl652   2.480       .  S
C653       C1252   1.471       .  S
C656        C693   1.466       .  S
C656        N674   1.343       .  A
N657        N674   1.315       .  A
N657        N679   1.320       .  A
N657       Co694   2.075       .  S
C658        C696   1.455       .  S
C658        N683   1.332       .  A
C658        H703   1.082       .  S
H659        C700   1.081       .  S
C660        C664   1.455       .  S
C660        N684   1.341       .  A
C660        H689   1.081       .  S
Co661       N679   2.089   1_556  S
Co661       N669   2.099       .  S
Co661       N701   2.096   1_556  S
Co661       N677   2.088       .  S
Co661      Cl705   2.498   1_556  S
N662        C700   1.330       .  A
N662        N669   1.320       .  A
N662       Co663   2.076       .  S
Co663       N666   2.093       .  S
Co663       N683   2.082       .  S
Co663       N670   2.093       .  S
Co663      Cl705   2.410   1_556  S
C664        C964   1.471       .  S
C664        N702   1.350       .  A
N665        N672   1.316       .  A
N665        N695   1.320       .  A
N665       Co698   2.069       .  S
N666        N684   1.319       .  A
N666        N702   1.326       .  A
N667        C696   1.352       .  A
N667        N677   1.328       .  A
H668        C693   1.081       .  S
N669        N690   1.332       .  A
N670        N688   1.317       .  A
N670        N675   1.327       .  A
C671        C699   1.453       .  S
C671        C724   1.467       .  S
C671        N675   1.352       .  A
N672        C687   1.341       .  A
N672       Co694   2.074       .  S
C673        C676   1.469       .  S
C673        N701   1.351       .  A
C673        H707   1.081       .  S
C676        N697   1.341       .  A
N677        N683   1.321       .  A
N678        C704   1.340       .  A
N678        N680   1.318       .  A
N678       Co694   2.081       .  S
N679        C693   1.349       .  A
N680        N708   1.324       .  A
N680       Co698   2.080       .  S
H681        C704   1.081       .  S
H682        C699   1.081       .  S
N684       Co698   2.080   1_556  S
N685        N697   1.315       .  A
N685        N701   1.319       .  A
N685       Co694   2.066       .  S
C686        C700   1.453       .  S
C686        N690   1.356       .  A
C687        C706   1.461       .  S
C687        H691   1.080       .  S
N688        C699   1.337       .  A
N688       Co698   2.067   1_556  S
C692        C704   1.456       .  S
C692        C772   1.465       .  S
C692        N708   1.348       .  A
Co694      Cl705   2.407       .  S
N695        C706   1.348       .  A
Co698      Cl705   2.476       .  S
C706       C1009   1.474       .  S
C709        C710   1.409       .  A
C709        C714   1.415       .  A
C710        C711   1.396       .  A
C710        H715   1.078       .  S
C711        C712   1.409       .  A
C711        O716   1.372       .  S
C712        C713   1.403       .  A
C713        C714   1.408       .  A
C713        H717   1.083       .  S
C714        O718   1.367       .  S
O716        H720   0.992       .  S
O718        H719   0.992       .  S
C721        C722   1.402       .  A
C721        C726   1.408       .  A
C722        C723   1.396       .  A
C722        H727   1.084       .  S
C723        C724   1.406       .  A
C723        O728   1.369       .  S
C724        C725   1.400       .  A
C725        C726   1.402       .  A
C725        H729   1.083       .  S
C726        O730   1.372       .  S
O728        H732   0.991       .  S
O730        H731   0.992       .  S
C733        C734   1.401       .  A
C733        C738   1.403       .  A
C734        C735   1.404       .  A
C734        H739   1.084       .  S
C735        C736   1.414       .  A
C735        O740   1.375       .  S
C736        C737   1.404       .  A
C737        C738   1.399       .  A
C737        H741   1.077       .  S
C738        O742   1.372       .  S
O740        H744   0.992       .  S
O742        H743   0.992       .  S
C745        C746   1.403       .  A
C745        C750   1.411       .  A
C746        C747   1.396       .  A
C746        H751   1.081       .  S
C747        C748   1.406       .  A
C747        O752   1.370       .  S
C748        C749   1.399       .  A
C749        C750   1.403       .  A
C749        H753   1.084       .  S
C750        O754   1.373       .  S
O752        H756   0.991       .  S
O754        H755   0.992       .  S
C757        C758   1.403       .  A
C757        C762   1.406       .  A
C758        C759   1.399       .  A
C758        H763   1.084       .  S
C759        C760   1.403       .  A
C759        O764   1.371       .  S
C760        C761   1.403       .  A
C761        C762   1.405       .  A
C761        H765   1.084       .  S
C762        O766   1.374       .  S
O764        H768   0.992       .  S
O766        H767   0.992       .  S
C769        C770   1.399       .  A
C769        C774   1.408       .  A
C770        C771   1.397       .  A
C770        H775   1.080       .  S
C771        C772   1.407       .  A
C771        O776   1.372       .  S
C772        C773   1.399       .  A
C773        C774   1.400       .  A
C773        H777   1.084       .  S
C774        O778   1.373       .  S
O776        H780   0.992       .  S
O778        H779   0.991       .  S
C781        C782   1.403       .  A
C781        C786   1.401       .  A
C782        C783   1.402       .  A
C782        H787   1.084       .  S
C783        C784   1.408       .  A
C783        O788   1.372       .  S
C784        C785   1.404       .  A
C785        C786   1.396       .  A
C785        H789   1.084       .  S
C786        O790   1.371       .  S
O788        H792   0.991       .  S
O790        H791   0.992       .  S
C793        C794   1.403       .  A
C793        C798   1.403       .  A
C794        C795   1.400       .  A
C794        H799   1.084       .  S
C795        C796   1.406       .  A
C795        O800   1.370       .  S
C796        C797   1.403       .  A
C797        C798   1.397       .  A
C797        H801   1.084       .  S
C798        O802   1.371       .  S
O800        H804   0.992       .  S
O802        H803   0.992       .  S
C805        C806   1.406       .  A
C805        C810   1.407       .  A
C806        C807   1.413   1_556  A
C806        H811   1.083       .  S
C807        C808   1.410       .  A
C807        O812   1.370       .  S
C808        C809   1.401       .  A
C809        C810   1.392   1_554  A
C809        H813   1.082       .  S
C810        O814   1.373       .  S
O812        H816   0.992       .  S
O814        H815   0.992       .  S
C817        C818   1.407       .  A
C817        C822   1.408       .  A
C818        C819   1.403       .  A
C818        H823   1.084       .  S
C819        C820   1.404       .  A
C819        O824   1.371       .  S
C820        C821   1.398       .  A
C821        C822   1.399       .  A
C821        H825   1.084       .  S
C822        O826   1.365       .  S
O824        H828   0.992       .  S
O826        H827   0.990       .  S
C829        C830   1.404       .  A
C829        C834   1.408       .  A
C830        C831   1.400       .  A
C830        H835   1.084       .  S
C831        C832   1.404       .  A
C831        O836   1.371       .  S
C832        C833   1.404       .  A
C833        C834   1.403       .  A
C833        H837   1.084       .  S
C834        O838   1.371       .  S
O836        H840   0.992       .  S
O838        H839   0.992       .  S
C841        C842   1.403       .  A
C841        C846   1.404       .  A
C842        C843   1.407       .  A
C842        H847   1.084       .  S
C843        C844   1.410       .  A
C843        O848   1.374       .  S
C844        C845   1.405       .  A
C845        C846   1.398       .  A
C845        H849   1.084       .  S
C846        O850   1.371       .  S
O848        H852   0.992       .  S
O850        H851   0.992       .  S
C853        C854   1.400       .  A
C853        C858   1.404       .  A
C854        C855   1.406       .  A
C854        H859   1.084       .  S
C855        C856   1.413       .  A
C855        O860   1.373       .  S
C856        C857   1.405       .  A
C857        C858   1.397       .  A
C857        H861   1.075       .  S
C858        O862   1.371       .  S
O860        H864   0.992       .  S
O862        H863   0.991       .  S
C865        C866   1.397       .  A
C865        C870   1.410       .  A
C866        C867   1.391   1_655  A
C866        H871   1.083       .  S
C867        C868   1.408       .  A
C867        O872   1.370       .  S
C868        C869   1.410       .  A
C869        C870   1.415   1_455  A
C869        H873   1.082       .  S
C870        O874   1.370       .  S
O872        H876   0.991       .  S
O874        H875   0.992       .  S
C877        C878   1.400       .  A
C877        C882   1.404       .  A
C878        C879   1.395       .  A
C878        H883   1.084       .  S
C879        C880   1.413       .  A
C879        O884   1.371       .  S
C880        C881   1.406       .  A
C881        C882   1.399       .  A
C881        H885   1.083       .  S
C882        O886   1.371       .  S
O884        H888   0.992       .  S
O886        H887   0.992       .  S
C889        C890   1.402       .  A
C889        C894   1.410       .  A
C890        C891   1.397       .  A
C890        H895   1.084       .  S
C891        C892   1.407       .  A
C891        O896   1.371       .  S
C892        C893   1.397       .  A
C893        C894   1.399       .  A
C893        H897   1.084       .  S
C894        O898   1.373       .  S
O896        H900   0.992       .  S
O898        H899   0.992       .  S
C901        C902   1.413       .  A
C901        C906   1.425       .  A
C902        C903   1.399       .  A
C902        H907   1.075       .  S
C903        C904   1.404       .  A
C903        O908   1.371       .  S
C904        C905   1.401       .  A
C905        C906   1.402       .  A
C905        H909   1.084       .  S
C906        O910   1.368       .  S
O908        H912   0.992       .  S
O910        H911   0.991       .  S
C913        C914   1.396       .  A
C913        C918   1.410       .  A
C914        C915   1.393       .  A
C914        H919   1.084       .  S
C915        C916   1.413       .  A
C915        O920   1.372       .  S
C916        C917   1.403       .  A
C917        C918   1.402       .  A
C917        H921   1.083       .  S
C918        O922   1.371       .  S
O920        H924   0.992       .  S
O922        H923   0.992       .  S
C925        C926   1.397       .  A
C925        C930   1.412       .  A
C926        C927   1.392   1_556  A
C926        H931   1.085       .  S
C927        C928   1.411       .  A
C927        O932   1.371       .  S
C928        C929   1.408       .  A
C929        C930   1.415   1_554  A
C929        H933   1.082       .  S
C930        O934   1.373       .  S
O932        H936   0.992       .  S
O934        H935   0.992       .  S
C937        C938   1.404       .  A
C937        C942   1.417       .  A
C938        C939   1.394   1_455  A
C938        H943   1.062       .  S
C939        C940   1.417       .  A
C939        O944   1.366       .  S
C940        C941   1.419       .  A
C941        C942   1.410   1_655  A
C941        H945   1.073       .  S
C942        O946   1.374       .  S
O944        H948   0.994       .  S
O946        H947   0.992       .  S
C949        C950   1.403       .  A
C949        C954   1.407       .  A
C950        C951   1.400       .  A
C950        H955   1.082       .  S
C951        C952   1.407       .  A
C951        O956   1.372       .  S
C952        C953   1.399       .  A
C953        C954   1.401       .  A
C953        H957   1.084       .  S
C954        O958   1.371       .  S
O956        H960   0.992       .  S
O958        H959   0.991       .  S
C961        C962   1.403       .  A
C961        C966   1.409       .  A
C962        C963   1.402       .  A
C962        H967   1.082       .  S
C963        C964   1.408       .  A
C963        O968   1.372       .  S
C964        C965   1.400       .  A
C965        C966   1.401       .  A
C965        H969   1.084       .  S
C966        O970   1.372       .  S
O968        H972   0.992       .  S
O970        H971   0.991       .  S
C973        C974   1.403       .  A
C973        C978   1.406       .  A
C974        C975   1.399       .  A
C974        H979   1.084       .  S
C975        C976   1.403       .  A
C975        O980   1.371       .  S
C976        C977   1.404       .  A
C977        C978   1.402       .  A
C977        H981   1.084       .  S
C978        O982   1.371       .  S
O980        H984   0.992       .  S
O982        H983   0.992       .  S
C985        C986   1.404       .  A
C985        C990   1.407       .  A
C986        C987   1.396       .  A
C986        H991   1.084       .  S
C987        C988   1.402       .  A
C987        O992   1.371       .  S
C988        C989   1.404       .  A
C989        C990   1.404       .  A
C989        H993   1.084       .  S
C990        O994   1.373       .  S
O992        H996   0.992       .  S
O994        H995   0.992       .  S
C997        C998   1.406       .  A
C997       C1002   1.409       .  A
C998        C999   1.395       .  A
C998       H1003   1.084       .  S
C999       C1000   1.403       .  A
C999       O1004   1.372       .  S
C1000      C1001   1.404       .  A
C1001      C1002   1.402       .  A
C1001      H1005   1.084       .  S
C1002      O1006   1.369       .  S
O1004      H1008   0.992       .  S
O1006      H1007   0.992       .  S
C1009      C1010   1.395       .  A
C1009      C1014   1.402       .  A
C1010      C1011   1.393       .  A
C1010      H1015   1.084       .  S
C1011      C1012   1.424       .  A
C1011      O1016   1.362       .  S
C1012      C1013   1.415       .  A
C1013      C1014   1.401       .  A
C1013      H1017   1.073       .  S
C1014      O1018   1.371       .  S
O1016      H1020   0.992       .  S
O1018      H1019   0.992       .  S
C1021      C1022   1.402       .  A
C1021      C1026   1.414       .  A
C1022      C1023   1.397       .  A
C1022      H1027   1.078       .  S
C1023      C1024   1.405       .  A
C1023      O1028   1.368       .  S
C1024      C1025   1.399       .  A
C1025      C1026   1.406       .  A
C1025      H1029   1.084       .  S
C1026      O1030   1.373       .  S
O1028      H1032   0.992       .  S
O1030      H1031   0.992       .  S
C1033      C1034   1.404       .  A
C1033      C1038   1.410       .  A
C1034      C1035   1.399       .  A
C1034      H1039   1.083       .  S
C1035      C1036   1.408       .  A
C1035      O1040   1.372       .  S
C1036      C1037   1.397       .  A
C1037      C1038   1.393       .  A
C1037      H1041   1.084       .  S
C1038      O1042   1.372       .  S
O1040      H1044   0.992       .  S
O1042      H1043   0.991       .  S
C1045      C1046   1.415       .  A
C1045      C1050   1.412       .  A
C1046      C1047   1.406   1_554  A
C1046      H1051   1.077       .  S
C1047      C1048   1.407       .  A
C1047      O1052   1.371       .  S
C1048      C1049   1.404       .  A
C1049      C1050   1.405   1_556  A
C1049      H1053   1.084       .  S
C1050      O1054   1.374       .  S
O1052      H1056   0.992       .  S
O1054      H1055   0.991       .  S
C1057      C1058   1.398       .  A
C1057      C1062   1.409       .  A
C1058      C1059   1.401       .  A
C1058      H1063   1.084       .  S
C1059      C1060   1.412       .  A
C1059      O1064   1.370       .  S
C1060      C1061   1.404       .  A
C1061      C1062   1.402       .  A
C1061      H1065   1.080       .  S
C1062      O1066   1.372       .  S
O1064      H1068   0.992       .  S
O1066      H1067   0.992       .  S
C1069      C1070   1.401       .  A
C1069      C1074   1.407       .  A
C1070      C1071   1.399       .  A
C1070      H1075   1.083       .  S
C1071      C1072   1.406       .  A
C1071      O1076   1.370       .  S
C1072      C1073   1.399       .  A
C1073      C1074   1.399       .  A
C1073      H1077   1.084       .  S
C1074      O1078   1.372       .  S
O1076      H1080   0.992       .  S
O1078      H1079   0.992       .  S
C1081      C1082   1.403       .  A
C1081      C1086   1.410       .  A
C1082      C1083   1.403       .  A
C1082      H1087   1.083       .  S
C1083      C1084   1.409       .  A
C1083      O1088   1.371       .  S
C1084      C1085   1.397       .  A
C1085      C1086   1.397       .  A
C1085      H1089   1.084       .  S
C1086      O1090   1.370       .  S
O1088      H1092   0.992       .  S
O1090      H1091   0.991       .  S
C1093      C1094   1.401       .  A
C1093      C1098   1.408       .  A
C1094      C1095   1.401       .  A
C1094      H1099   1.083       .  S
C1095      C1096   1.408       .  A
C1095      O1100   1.370       .  S
C1096      C1097   1.398       .  A
C1097      C1098   1.399       .  A
C1097      H1101   1.084       .  S
C1098      O1102   1.372       .  S
O1100      H1104   0.992       .  S
O1102      H1103   0.991       .  S
C1105      C1106   1.398       .  A
C1105      C1110   1.412       .  A
C1106      C1107   1.391   1_565  A
C1106      H1111   1.084       .  S
C1107      C1108   1.411       .  A
C1107      O1112   1.373       .  S
C1108      C1109   1.408       .  A
C1109      C1110   1.412   1_545  A
C1109      H1113   1.082       .  S
C1110      O1114   1.370       .  S
O1112      H1116   0.992       .  S
O1114      H1115   0.992       .  S
C1117      C1118   1.400       .  A
C1117      C1122   1.409       .  A
C1118      C1119   1.400       .  A
C1118      H1123   1.084       .  S
C1119      C1120   1.411       .  A
C1119      O1124   1.372       .  S
C1120      C1121   1.405       .  A
C1121      C1122   1.404       .  A
C1121      H1125   1.083       .  S
C1122      O1126   1.372       .  S
O1124      H1128   0.991       .  S
O1126      H1127   0.992       .  S
C1129      C1130   1.410       .  A
C1129      C1134   1.408       .  A
C1130      C1131   1.403       .  A
C1130      H1135   1.083       .  S
C1131      C1132   1.402       .  A
C1131      O1136   1.371       .  S
C1132      C1133   1.397       .  A
C1133      C1134   1.395       .  A
C1133      H1137   1.078       .  S
C1134      O1138   1.367       .  S
O1136      H1140   0.992       .  S
O1138      H1139   0.992       .  S
C1141      C1142   1.404       .  A
C1141      C1146   1.407       .  A
C1142      C1143   1.401       .  A
C1142      H1147   1.084       .  S
C1143      C1144   1.404       .  A
C1143      O1148   1.371       .  S
C1144      C1145   1.402       .  A
C1145      C1146   1.402       .  A
C1145      H1149   1.084       .  S
C1146      O1150   1.371       .  S
O1148      H1152   0.992       .  S
O1150      H1151   0.995       .  S
C1153      C1154   1.401       .  A
C1153      C1158   1.408       .  A
C1154      C1155   1.398       .  A
C1154      H1159   1.081       .  S
C1155      C1156   1.408       .  A
C1155      O1160   1.372       .  S
C1156      C1157   1.400       .  A
C1157      C1158   1.400       .  A
C1157      H1161   1.084       .  S
C1158      O1162   1.372       .  S
O1160      H1164   0.990       .  S
O1162      H1163   0.992       .  S
C1165      C1166   1.410       .  A
C1165      C1170   1.405       .  A
C1166      C1167   1.413   1_565  A
C1166      H1171   1.081       .  S
C1167      C1168   1.410       .  A
C1167      O1172   1.369       .  S
C1168      C1169   1.399       .  A
C1169      C1170   1.395   1_545  A
C1169      H1173   1.077       .  S
C1170      O1174   1.375       .  S
O1172      H1176   0.992       .  S
O1174      H1175   0.991       .  S
C1177      C1178   1.410       .  A
C1177      C1182   1.407       .  A
C1178      C1179   1.419   1_554  A
C1178      H1183   1.083       .  S
C1179      C1180   1.411       .  A
C1179      O1184   1.370       .  S
C1180      C1181   1.396       .  A
C1181      C1182   1.390   1_556  A
C1181      H1185   1.077       .  S
C1182      O1186   1.370       .  S
O1184      H1188   0.992       .  S
O1186      H1187   0.991       .  S
C1189      C1190   1.403       .  A
C1189      C1194   1.410       .  A
C1190      C1191   1.403       .  A
C1190      H1195   1.083       .  S
C1191      C1192   1.409       .  A
C1191      O1196   1.371       .  S
C1192      C1193   1.395       .  A
C1193      C1194   1.401       .  A
C1193      H1197   1.084       .  S
C1194      O1198   1.372       .  S
O1196      H1200   0.992       .  S
O1198      H1199   0.992       .  S
C1201      C1202   1.401       .  A
C1201      C1206   1.408       .  A
C1202      C1203   1.401       .  A
C1202      H1207   1.083       .  S
C1203      C1204   1.407       .  A
C1203      O1208   1.371       .  S
C1204      C1205   1.399       .  A
C1205      C1206   1.400       .  A
C1205      H1209   1.084       .  S
C1206      O1210   1.372       .  S
O1208      H1212   0.992       .  S
O1210      H1211   0.992       .  S
C1213      C1214   1.405       .  A
C1213      C1218   1.412       .  A
C1214      C1215   1.398       .  A
C1214      H1219   1.076       .  S
C1215      C1216   1.406       .  A
C1215      O1220   1.372       .  S
C1216      C1217   1.400       .  A
C1217      C1218   1.403       .  A
C1217      H1221   1.083       .  S
C1218      O1222   1.371       .  S
O1220      H1224   0.992       .  S
O1222      H1223   0.992       .  S
C1225      C1226   1.396       .  A
C1225      C1230   1.409       .  A
C1226      C1227   1.397       .  A
C1226      H1231   1.084       .  S
C1227      C1228   1.409       .  A
C1227      O1232   1.369       .  S
C1228      C1229   1.404       .  A
C1229      C1230   1.403       .  A
C1229      H1233   1.083       .  S
C1230      O1234   1.371       .  S
O1232      H1236   0.992       .  S
O1234      H1235   0.992       .  S
C1237      C1238   1.402       .  A
C1237      C1242   1.402       .  A
C1238      C1239   1.403       .  A
C1238      H1243   1.084       .  S
C1239      C1240   1.408       .  A
C1239      O1244   1.374       .  S
C1240      C1241   1.405       .  A
C1241      C1242   1.396       .  A
C1241      H1245   1.084       .  S
C1242      O1246   1.371       .  S
O1244      H1248   0.992       .  S
O1246      H1247   0.992       .  S
C1249      C1250   1.406       .  A
C1249      C1254   1.407       .  A
C1250      C1251   1.399       .  A
C1250      H1255   1.084       .  S
C1251      C1252   1.402       .  A
C1251      O1256   1.371       .  S
C1252      C1253   1.404       .  A
C1253      C1254   1.406       .  A
C1253      H1257   1.082       .  S
C1254      O1258   1.373       .  S
O1256      H1260   0.992       .  S
O1258      H1259   0.990   1_545  S
C1261      C1262   1.416       .  A
C1261      C1266   1.418       .  A
C1262      C1263   1.403       .  A
C1262      H1267   1.075       .  S
C1263      C1264   1.405       .  A
C1263      O1268   1.371       .  S
C1264      C1265   1.397       .  A
C1265      C1266   1.395       .  A
C1265      H1269   1.084       .  S
C1266      O1270   1.359       .  S
O1268      H1272   0.991       .  S
O1270      H1271   0.992       .  S
C1273      C1274   1.406       .  A
C1273      C1278   1.403       .  A
C1274      C1275   1.407       .  A
C1274      H1279   1.084       .  S
C1275      C1276   1.411       .  A
C1275      O1280   1.373       .  S
C1276      C1277   1.407       .  A
C1277      C1278   1.395       .  A
C1277      H1281   1.084       .  S
C1278      O1282   1.372       .  S
O1280      H1284   0.992       .  S
O1282      H1283   0.992       .  S
C1285      C1286   1.394       .  A
C1285      C1290   1.414       .  A
C1286      C1287   1.388   1_565  A
C1286      H1291   1.081       .  S
C1287      C1288   1.411       .  A
C1287      O1292   1.368       .  S
C1288      C1289   1.412       .  A
C1289      C1290   1.421   1_545  A
C1289      H1293   1.083       .  S
C1290      O1294   1.371       .  S
O1292      H1296   0.992       .  S
O1294      H1295   0.992       .  S
C1297      C1298   1.405       .  A
C1297      C1302   1.411       .  A
C1298      C1299   1.402       .  A
C1298      H1303   1.083       .  S
C1299      C1300   1.408       .  A
C1299      O1304   1.372       .  S
C1300      C1301   1.399       .  A
C1301      C1302   1.402       .  A
C1301      H1305   1.084       .  S
C1302      O1306   1.375       .  S
O1304      H1308   0.992       .  S
O1306      H1307   0.992       .  S
C1309      C1310   1.403       .  A
C1309      C1314   1.409       .  A
C1310      C1311   1.401       .  A
C1310      H1315   1.083       .  S
C1311      C1312   1.407       .  A
C1311      O1316   1.371       .  S
C1312      C1313   1.398       .  A
C1313      C1314   1.401       .  A
C1313      H1317   1.084       .  S
C1314      O1318   1.373       .  S
O1316      H1320   0.991       .  S
O1318      H1319   0.992       .  S
C1321      C1322   1.404       .  A
C1321      C1326   1.404       .  A
C1322      C1323   1.405       .  A
C1322      H1327   1.084       .  S
C1323      C1324   1.407       .  A
C1323      O1328   1.371       .  S
C1324      C1325   1.403       .  A
C1325      C1326   1.399       .  A
C1325      H1329   1.084       .  S
C1326      O1330   1.371       .  S
O1328      H1332   0.992       .  S
O1330      H1331   0.992       .  S
C1333      C1334   1.402       .  A
C1333      C1338   1.410       .  A
C1334      C1335   1.401       .  A
C1334      H1339   1.080       .  S
C1335      C1336   1.408       .  A
C1335      O1340   1.371       .  S
C1336      C1337   1.398       .  A
C1337      C1338   1.400       .  A
C1337      H1341   1.084       .  S
C1338      O1342   1.371       .  S
O1340      H1344   0.991   1_545  S
O1342      H1343   0.991       .  S
C1345      C1346   1.418       .  A
C1345      C1350   1.401       .  A
C1346      C1347   1.415   1_655  A
C1346      H1351   1.082       .  S
C1347      C1348   1.409       .  A
C1347      O1352   1.370       .  S
C1348      C1349   1.395       .  A
C1349      C1350   1.388   1_455  A
C1349      H1353   1.074       .  S
C1350      O1354   1.360       .  S
O1352      H1356   0.992       .  S
O1354      H1355   0.993       .  S
C1357      C1358   1.402       .  A
C1357      C1362   1.406       .  A
C1358      C1359   1.395       .  A
C1358      H1363   1.084       .  S
C1359      C1360   1.401       .  A
C1359      O1364   1.371       .  S
C1360      C1361   1.403       .  A
C1361      C1362   1.401       .  A
C1361      H1365   1.084       .  S
C1362      O1366   1.373       .  S
O1364      H1368   0.992       .  S
O1366      H1367   0.992       .  S
C1369      C1370   1.403       .  A
C1369      C1374   1.405       .  A
C1370      C1371   1.397       .  A
C1370      H1375   1.084       .  S
C1371      C1372   1.402       .  A
C1371      O1376   1.371       .  S
C1372      C1373   1.405       .  A
C1373      C1374   1.403       .  A
C1373      H1377   1.084       .  S
C1374      O1378   1.371       .  S
O1376      H1380   0.992       .  S
O1378      H1379   0.992       .  S
C1381      C1382   1.414       .  A
C1381      C1386   1.423       .  A
C1382      C1383   1.401       .  A
C1382      H1387   1.074       .  S
C1383      C1384   1.404       .  A
C1383      O1388   1.371       .  S
C1384      C1385   1.397       .  A
C1385      C1386   1.396       .  A
C1385      H1389   1.084       .  S
C1386      O1390   1.362       .  S
O1388      H1392   0.992       .  S
O1390      H1391   0.992       .  S
C1393      C1394   1.406       .  A
C1393      C1398   1.408       .  A
C1394      C1395   1.395       .  A
C1394      H1399   1.084       .  S
C1395      C1396   1.403       .  A
C1395      O1400   1.372       .  S
C1396      C1397   1.406       .  A
C1397      C1398   1.404       .  A
C1397      H1401   1.083       .  S
C1398      O1402   1.371       .  S
O1400      H1404   0.992       .  S
O1402      H1403   0.992       .  S
C1405      C1406   1.397       .  A
C1405      C1410   1.410       .  A
C1406      C1407   1.393   1_565  A
C1406      H1411   1.084       .  S
C1407      C1408   1.410       .  A
C1407      O1412   1.369       .  S
C1408      C1409   1.409       .  A
C1409      C1410   1.414   1_545  A
C1409      H1413   1.079       .  S
C1410      O1414   1.371       .  S
O1412      H1416   0.992       .  S
O1414      H1415   0.992       .  S
C1417      C1418   1.406       .  A
C1417      C1422   1.414       .  A
C1418      C1419   1.411   1_655  A
C1418      H1423   1.081       .  S
C1419      C1420   1.419       .  A
C1419      O1424   1.374       .  S
C1420      C1421   1.401       .  A
C1421      C1422   1.400   1_455  A
C1421      H1425   1.084       .  S
C1422      O1426   1.371       .  S
O1424      H1428   0.992       .  S
O1426      H1427   0.992       .  S
