geometry optimzed in LAMMPS
_audit_creation_date              2020-11-30 
_audit_creation_method            'lammps2cif' 
_symmetry_space_group_name_H-M    'P1' 
_symmetry_Int_Tables_number       1 
_symmetry_cell_setting            triclinic 
loop_ 
_symmetry_equiv_pos_as_xyz 
  x,y,z 
_cell_length_a                    31.65605292 
_cell_length_b                    30.8436510426694 
_cell_length_c                    31.72214215699701 
_cell_angle_alpha                 86.44702809748554 
_cell_angle_beta                  80.86607286414105 
_cell_angle_gamma                 85.63874686170224 
loop_ 
_atom_site_label 
_atom_site_type_symbol 
_atom_site_fract_x 
_atom_site_fract_y 
_atom_site_fract_z 
_atom_site_charge 
O1          O  0.11526532  0.01076773  0.97438584    -0.80700
O2          O  0.92113709  0.01835231  0.94747002    -0.65400
O3          O  0.03559357  0.04335425  0.95575191    -1.12000
C4          C  0.97576994  0.04554639  0.10360941     1.06200
O5          O  0.89770108  0.07433602  0.98516093    -0.78600
O6          O  0.94176412  0.11863158  0.03151817    -0.66200
Ni7        Ni  0.07979363  0.00176237  0.93285330     1.34900
C8          C  0.97889775  0.13198454  0.02000427     0.84900
O9          O  0.99053298  0.03008818  0.88968946    -0.79200
O10         O  0.05151251  0.98877207  0.88618414    -0.89400
C11         C  0.89011021  0.04331686  0.96380403     0.84500
O12         O  0.05562607  0.95464191  0.96771762    -0.67600
O13         O  0.93898407  0.05126207  0.09177626    -0.86900
C14         C  0.01852361  0.94221615  0.96696112     0.85300
C15         C  0.01959326  0.00532820  0.86953772     1.06900
H16         H  0.96633422  0.00045942  0.02257459     0.38700
O17         O  0.96915969  0.02997696  0.01099127    -1.09600
O18         O  0.01247631  0.10676771  0.01199576    -0.66200
Ni19       Ni  0.02480424  0.04499747  0.01707488     1.26300
O20         O  0.98883359  0.96756028  0.95449390    -0.66500
O21         O  0.01147884  0.04539539  0.07828107    -0.78800
C22         C  0.11589639  0.03806625  0.00257318     0.84700
O23         O  0.08215970  0.05827111  0.02090115    -0.65900
Ni24       Ni  0.91983544  0.06251098  0.03776929     1.27400
Ni25       Ni  0.97878212  0.03013682  0.95025496     1.26100
H26         H  0.04137652  0.07184138  0.94258792     0.39200
O27         O  0.96532529  0.01224851  0.49975024    -0.74300
O28         O  0.96691058  0.88679249  0.49371099    -0.74300
O29         O  0.97142655  0.94248166  0.55563652    -0.74400
O30         O  0.96010373  0.95662830  0.43805312    -0.74400
O31         O  0.03105218  0.95382466  0.42019587    -0.74300
O32         O  0.04238746  0.93931415  0.53871173    -0.74300
O33         O  0.03783378  0.88391652  0.47616191    -0.74300
O34         O  0.03622849  0.00858884  0.48244509    -0.74400
Ni35       Ni  0.96345371  0.94954700  0.49739898     1.25400
Ni36       Ni  0.03939275  0.94615628  0.47876600     1.25400
C37         C  0.00074504  0.03130138  0.49219643     0.87900
C38         C  0.00276080  0.86453973  0.48364069     0.87800
C39         C  0.00862815  0.93931649  0.56690421     0.87900
C40         C  0.99344322  0.95882966  0.40971429     0.88000
O41         O  0.56735628  0.02227766  0.00323043    -0.74300
O42         O  0.44673435  0.03967574  0.02978013    -0.74300
O43         O  0.51045961  0.02716434  0.07904425    -0.74400
O44         O  0.50289942  0.03309068  0.95518947    -0.74400
O45         O  0.49926268  0.96146545  0.95758564    -0.74300
O46         O  0.50383320  0.95610087  0.08128559    -0.74300
O47         O  0.44027723  0.96833094  0.03076106    -0.74300
O48         O  0.56322706  0.95024724  0.00681095    -0.74400
Ni49       Ni  0.50715116  0.03292509  0.01690790     1.25400
Ni50       Ni  0.50150362  0.95647077  0.01942601     1.25400
C51         C  0.58508062  0.98393883  0.99886572     0.87900
C52         C  0.42331284  0.00737394  0.03331020     0.87800
C53         C  0.50723951  0.99057067  0.10131154     0.87900
C54         C  0.49998543  0.99811262  0.93555979     0.88000
O55         O  0.98701076  0.47742576  0.04821754    -0.74300
O56         O  0.98120039  0.60144516  0.03805795    -0.74300
O57         O  0.92143214  0.54030716  0.04303174    -0.74400
O58         O  0.04677464  0.53918254  0.04230610    -0.74400
O59         O  0.05722603  0.53676593  0.97179666    -0.74300
O60         O  0.93278872  0.53807415  0.97249961    -0.74300
O61         O  0.99221875  0.59940370  0.96714792    -0.74300
O62         O  0.99797880  0.47501323  0.97733140    -0.74400
Ni63       Ni  0.98370803  0.53959923  0.04537232     1.25400
Ni64       Ni  0.99541170  0.53716664  0.96977890     1.25400
C65         C  0.99285892  0.45568381  0.01452674     0.87900
C66         C  0.98614077  0.62094408  0.00106837     0.87800
C67         C  0.90601199  0.53947550  0.00766929     0.87900
C68         C  0.07310100  0.53849328  0.00663479     0.88000
O69         O  0.94586905  0.45153637  0.46471903    -0.74300
O70         O  0.06779763  0.44717293  0.43909543    -0.74300
O71         O  0.00760754  0.38665048  0.45240847    -0.74400
O72         O  0.00529234  0.51240652  0.45189399    -0.74400
O73         O  0.00919257  0.50783123  0.52127455    -0.74300
O74         O  0.01054876  0.38222698  0.52201552    -0.74300
O75         O  0.07104840  0.44219047  0.50889494    -0.74300
O76         O  0.94922260  0.44755939  0.53451247    -0.74400
Ni77       Ni  0.00657803  0.44961724  0.44954389     1.25400
Ni78       Ni  0.01025929  0.44485815  0.52409647     1.25400
C79         C  0.92753975  0.44919855  0.50368988     0.87900
C80         C  0.08953290  0.44425596  0.46998926     0.87800
C81         C  0.00791065  0.36355693  0.48749086     0.87900
C82         C  0.00685976  0.53116803  0.48665790     0.88000
O83         O  0.60152119  0.43719458  0.48878022    -0.80700
O84         O  0.41718684  0.47354937  0.47205173    -0.65400
O85         O  0.53325024  0.49290684  0.47031920    -1.12000
C86         C  0.49132305  0.51059730  0.61582340     1.06200
O87         O  0.39427628  0.53184872  0.50859824    -0.78600
O88         O  0.45707393  0.57767619  0.52992426    -0.66200
Ni89       Ni  0.57668537  0.45639422  0.43891597     1.34900
C90         C  0.49647259  0.58506174  0.52515029     0.84900
O91         O  0.48277960  0.47904635  0.40989864    -0.79200
O92         O  0.55409669  0.47444108  0.38769467    -0.89400
C93         C  0.38821513  0.50251539  0.48392104     0.84500
O94         O  0.54867060  0.40323946  0.44366652    -0.67600
O95         O  0.45638819  0.52765714  0.60474878    -0.86900
C96         C  0.51299426  0.39272513  0.46435632     0.85300
C97         C  0.51541541  0.48119205  0.38101062     1.06900
H98         H  0.46223641  0.45850288  0.54421885     0.38700
O99         O  0.46950754  0.48613182  0.52999194    -1.09600
O100        O  0.52603077  0.55515501  0.52808649    -0.66200
Ni101      Ni  0.52862368  0.49219891  0.53061653     1.26300
O102        O  0.48350955  0.42048485  0.47859776    -0.66500
O103        O  0.52145184  0.49179765  0.59070463    -0.78800
C104        C  0.61384970  0.46361806  0.51264509     0.84700
O105        O  0.58864365  0.49424903  0.52869588    -0.65900
Ni106      Ni  0.42802727  0.52843337  0.55507063     1.27400
Ni107      Ni  0.47551114  0.48228674  0.47011773     1.26100
H108        H  0.53733548  0.52220307  0.45868136     0.39200
O109        O  0.50327438  0.50515604  0.94563925    -0.74300
O110        O  0.47972067  0.51185363  0.06568468    -0.74300
O111        O  0.42932689  0.50965226  0.00403240    -0.74400
O112        O  0.55336924  0.50806728  0.00831471    -0.74400
O113        O  0.55068410  0.58007969  0.99951752    -0.74300
O114        O  0.42612971  0.58177457  0.99808000    -0.74300
O115        O  0.47807670  0.58438709  0.05899687    -0.74300
O116        O  0.49949633  0.57737207  0.93778303    -0.74400
Ni117      Ni  0.49149895  0.50622392  0.00604542     1.25400
Ni118      Ni  0.48838758  0.58347587  0.99820232     1.25400
C119        C  0.50573085  0.53991030  0.92169184     0.87900
C120        C  0.47620156  0.54892642  0.08207959     0.87800
C121        C  0.40661145  0.54609843  0.00159678     0.87900
C122        C  0.57278335  0.54379940  0.00518167     0.88000
O123        O  0.47346647  0.92508320  0.53038118    -0.74300
O124        O  0.46133881  0.04962958  0.51912905    -0.74300
O125        O  0.46786597  0.98503334  0.46229942    -0.74400
O126        O  0.46693929  0.99051793  0.58694306    -0.74400
O127        O  0.53775201  0.99147148  0.57565752    -0.74300
O128        O  0.53861627  0.98723177  0.45141691    -0.74300
O129        O  0.53248533  0.05110972  0.50873710    -0.74300
O130        O  0.54461642  0.92737675  0.51801326    -0.74400
Ni131      Ni  0.46488723  0.98739160  0.52510896     1.25400
Ni132      Ni  0.54074118  0.98936815  0.51313395     1.25400
C133        C  0.51111632  0.90582741  0.52571524     0.87900
C134        C  0.49517850  0.07080032  0.51187346     0.87800
C135        C  0.50348464  0.98550992  0.43583708     0.87900
C136        C  0.50230443  0.99189104  0.60227767     0.88000
C137        C  0.49208078  0.11860450  0.50730849    -0.11800
C138        C  0.46084488  0.14225229  0.48625055     0.03700
C139        C  0.46189357  0.18746527  0.48004686    -0.12300
C140        C  0.49376857  0.20929242  0.49428072     0.18500
C141        C  0.52441133  0.18592305  0.51578857    -0.09400
C142        C  0.52334716  0.14096149  0.52220062    -0.02300
H143        H  0.43851811  0.20555370  0.46310175     0.05100
C144        C  0.49591407  0.25630377  0.48517426     0.20500
H145        H  0.54753028  0.12328544  0.53840884     0.10200
C146        C  0.47850072  0.28464205  0.51710297    -0.15700
C147        C  0.48334936  0.32928321  0.51096841     0.03200
C148        C  0.50561508  0.34610695  0.47189901    -0.11000
C149        C  0.52274309  0.31740439  0.43987610    -0.01100
C150        C  0.51807849  0.27275319  0.44630790    -0.06200
H151        H  0.46228769  0.27173598  0.54743724     0.06200
H152        H  0.54012676  0.32969633  0.40985727     0.09600
Br153      Br  0.56938056  0.21387770  0.53527476    -0.05900
Br154      Br  0.41862048  0.11470831  0.46188112    -0.02900
Br155      Br  0.46249028  0.36428683  0.55882738     0.00000
Br156      Br  0.54397175  0.23510734  0.40206845    -0.04400
C157        C  0.50789778  0.63089019  0.51859983    -0.11800
C158        C  0.48288013  0.66254860  0.49755688     0.03700
C159        C  0.48945342  0.70658933  0.49905709    -0.12300
C160        C  0.52126160  0.71992870  0.52038866     0.18500
C161        C  0.54859481  0.68855549  0.53846015    -0.09400
C162        C  0.54172595  0.64429322  0.53759809    -0.02300
H163        H  0.46919403  0.73072133  0.48398214     0.05100
C164        C  0.52376232  0.76691941  0.52438193     0.20500
H165        H  0.56170939  0.62051180  0.55340076     0.10200
C166        C  0.49947401  0.78693678  0.55972947    -0.15700
C167        C  0.49545675  0.83233049  0.56128179     0.03200
C168        C  0.51636291  0.85807942  0.52722172    -0.11000
C169        C  0.54219526  0.83787634  0.49286966    -0.01100
C170        C  0.54551559  0.79262167  0.49097684    -0.06200
H171        H  0.48250673  0.76722310  0.58547668     0.06200
H172        H  0.55841082  0.85746483  0.46653943     0.09600
Br173      Br  0.59491478  0.70494625  0.56508036    -0.05900
Br174      Br  0.44004393  0.64797299  0.46520375    -0.02900
Br175      Br  0.46184502  0.85756599  0.61063356     0.00000
Br176      Br  0.57811983  0.76731092  0.44125303    -0.04400
C177        C  0.50729098  0.49378097  0.33796865    -0.11800
C178        C  0.47831733  0.52961581  0.33101539     0.03700
C179        C  0.47000610  0.54071646  0.28995579    -0.12300
C180        C  0.49035224  0.51674499  0.25580960     0.18500
C181        C  0.51984832  0.48146920  0.26231980    -0.09400
C182        C  0.52827028  0.47019280  0.30351465    -0.02300
H183        H  0.44791845  0.56835349  0.28450664     0.05100
C184        C  0.48134467  0.52997979  0.21325979     0.20500
H185        H  0.55071086  0.44281091  0.30874210     0.10200
C186        C  0.50508785  0.56222342  0.18976716    -0.15700
C187        C  0.50108345  0.57201292  0.14714437     0.03200
C188        C  0.47252138  0.54940192  0.12824122    -0.11000
C189        C  0.44656540  0.51937681  0.15290706    -0.01100
C190        C  0.45090463  0.50943732  0.19536378    -0.06200
H191        H  0.52843397  0.57801259  0.20398861     0.06200
H192        H  0.42476475  0.50172254  0.13836159     0.09600
Br193      Br  0.54926016  0.44833826  0.21591153    -0.05900
Br194      Br  0.45122135  0.56636833  0.37568654    -0.02900
Br195      Br  0.53972329  0.61156997  0.11522216     0.00000
Br196      Br  0.41710744  0.46557785  0.22680899    -0.04400
C197        C  0.49826121  0.51447514  0.65965665    -0.11800
C198        C  0.46739638  0.50275097  0.69462084     0.03700
C199        C  0.47511577  0.50811831  0.73588406    -0.12300
C200        C  0.51307427  0.52527412  0.74257478     0.18500
C201        C  0.54420367  0.53642254  0.70778114    -0.09400
C202        C  0.53669860  0.53074884  0.66647120    -0.02300
H203        H  0.45139203  0.49908638  0.76291947     0.05100
C204        C  0.51882684  0.53130215  0.78647271     0.20500
H205        H  0.56054748  0.53979766  0.63954739     0.10200
C206        C  0.53122517  0.49501806  0.81125814    -0.15700
C207        C  0.52938395  0.49732118  0.85521253     0.03200
C208        C  0.51434766  0.53682744  0.87488297    -0.11000
C209        C  0.50466508  0.57385732  0.84909162    -0.01100
C210        C  0.50659601  0.57123293  0.80517203    -0.06200
H211        H  0.54087362  0.46431988  0.79647936     0.06200
H212        H  0.49351052  0.60453718  0.86323806     0.09600
Br213      Br  0.59685912  0.55964787  0.71529843    -0.05900
Br214      Br  0.41545781  0.47743361  0.68790455    -0.02900
Br215      Br  0.54748256  0.44484437  0.88533041     0.00000
Br216      Br  0.48912725  0.62194112  0.77238206    -0.04400
C217        C  0.13633138  0.44641677  0.46103524    -0.11800
C218        C  0.16297142  0.42626032  0.48922697     0.03700
C219        C  0.20526837  0.43734713  0.48551647    -0.12300
C220        C  0.22159099  0.46804240  0.45392999     0.18500
C221        C  0.19658000  0.48483993  0.42312726    -0.09400
C222        C  0.15406682  0.47393031  0.42682957    -0.02300
H223        H  0.22508437  0.42330004  0.50844707     0.05100
C224        C  0.26355260  0.48410315  0.45622662     0.20500
H225        H  0.13413317  0.48926381  0.40459806     0.10200
C226        C  0.29938938  0.46963019  0.42775604    -0.15700
C227        C  0.34052226  0.47835800  0.43395855     0.03200
C228        C  0.34599597  0.50104343  0.47006063    -0.11000
C229        C  0.30958253  0.51867024  0.49623773    -0.01100
C230        C  0.26856848  0.51041482  0.48948703    -0.06200
H231        H  0.29540540  0.45026237  0.40147492     0.06200
H232        H  0.31289935  0.53694155  0.52347747     0.09600
Br233      Br  0.21806607  0.52534143  0.37790538    -0.05900
Br234      Br  0.14353559  0.38375195  0.53353425    -0.02900
Br235      Br  0.38711628  0.45842349  0.39162877     0.00000
Br236      Br  0.22023783  0.53416304  0.52752310    -0.04400
C237        C  0.88097198  0.44598595  0.51255729    -0.11800
C238        C  0.85517118  0.46336289  0.54883342     0.03700
C239        C  0.81091654  0.45995695  0.55457591    -0.12300
C240        C  0.79194303  0.43993305  0.52450936     0.18500
C241        C  0.81772411  0.42200619  0.48870966    -0.09400
C242        C  0.86189659  0.42470172  0.48331805    -0.02300
H243        H  0.79091440  0.47490319  0.58147946     0.05100
C244        C  0.74529839  0.44528284  0.52680621     0.20500
H245        H  0.88136294  0.41092063  0.45546920     0.10200
C246        C  0.72711779  0.48728111  0.51914532    -0.15700
C247        C  0.68376895  0.49413294  0.51611478     0.03200
C248        C  0.65800190  0.45840742  0.52102815    -0.11000
C249        C  0.67590909  0.41645040  0.53000819    -0.01100
C250        C  0.71936160  0.40969894  0.53331761    -0.06200
H251        H  0.74721360  0.51463318  0.51366845     0.06200
H252        H  0.65616541  0.38884362  0.53382288     0.09600
Br253      Br  0.79421691  0.39743184  0.44403396    -0.05900
Br254      Br  0.87736846  0.49601792  0.58906748    -0.02900
Br255      Br  0.66288384  0.55206213  0.50040863     0.00000
Br256      Br  0.74189559  0.35168129  0.54616889    -0.04400
C257        C  0.62132891  0.54343187  0.00779399    -0.11800
C258        C  0.64357829  0.51122580  0.03182207     0.03700
C259        C  0.68857725  0.51175343  0.03252780    -0.12300
C260        C  0.71386642  0.54425091  0.01008518     0.18500
C261        C  0.69142220  0.57711958  0.98719796    -0.09400
C262        C  0.64649293  0.57655932  0.98632384    -0.02300
H263        H  0.70397954  0.48625229  0.05093400     0.05100
C264        C  0.76300961  0.54300659  0.01010967     0.20500
H265        H  0.63116181  0.60240402  0.96825467     0.10200
C266        C  0.79212018  0.53939215  0.97161281    -0.15700
C267        C  0.83753876  0.53796874  0.96992591     0.03200
C268        C  0.85674497  0.54031334  0.00756406    -0.11000
C269        C  0.82736630  0.54376283  0.04617649    -0.01100
C270        C  0.78188759  0.54500533  0.04768406    -0.06200
H271        H  0.77934127  0.53730249  0.94214723     0.06200
H272        H  0.83976842  0.54581504  0.07583884     0.09600
Br273      Br  0.72047714  0.62521422  0.95794791    -0.05900
Br274      Br  0.61376285  0.46698358  0.06713771    -0.02900
Br275      Br  0.87078453  0.53220139  0.91421448     0.00000
Br276      Br  0.74669363  0.55154051  0.10222222    -0.04400
C277        C  0.35729813  0.54653849  0.00301784    -0.11800
C278        C  0.32800419  0.58260324  0.01576060     0.03700
C279        C  0.28279679  0.58097638  0.01701834    -0.12300
C280        C  0.26407503  0.54387328  0.00595222     0.18500
C281        C  0.29315707  0.50786256  0.99357601    -0.09400
C282        C  0.33829832  0.50931679  0.99243122    -0.02300
H283        H  0.26199467  0.60927050  0.02679203     0.05100
C284        C  0.21498499  0.54332093  0.00666470     0.20500
H285        H  0.35879211  0.48074075  0.98294716     0.10200
C286        C  0.19808490  0.53889467  0.96865181    -0.15700
C287        C  0.15327228  0.53775444  0.96766147     0.03200
C288        C  0.12229462  0.54013679  0.00570396    -0.11000
C289        C  0.13941178  0.54503114  0.04375850    -0.01100
C290        C  0.18429325  0.54708112  0.04440446    -0.06200
H291        H  0.22014771  0.53668267  0.93893161     0.06200
H292        H  0.11765860  0.54755559  0.07363009     0.09600
Br293      Br  0.27248907  0.45458832  0.97954339    -0.05900
Br294      Br  0.34706142  0.63480417  0.03429217    -0.02900
Br295      Br  0.13754937  0.53355664  0.91214220     0.00000
Br296      Br  0.20216751  0.55409093  0.09839374    -0.04400
C297        C  0.49833355  0.99923790  0.88676906    -0.11800
C298        C  0.48436858  0.03653107  0.86243629     0.03700
C299        C  0.48462257  0.03576999  0.81729935    -0.12300
C300        C  0.49768957  0.99804366  0.79389112     0.18500
C301        C  0.51045289  0.96055221  0.81848096    -0.09400
C302        C  0.51077654  0.96145134  0.86337752    -0.02300
H303        H  0.47436749  0.06526038  0.80034784     0.05100
C304        C  0.49846540  0.99810414  0.74462378     0.20500
H305        H  0.52103785  0.93186228  0.88018417     0.10200
C306        C  0.53648419  0.98531809  0.71707868    -0.15700
C307        C  0.53860141  0.98336202  0.67190979     0.03200
C308        C  0.50197590  0.99422269  0.65126888    -0.11000
C309        C  0.46402033  0.00768120  0.67882511    -0.03500
C310        C  0.46213450  0.01008759  0.72403002    -0.06200
H311        H  0.56529660  0.97654089  0.73090998     0.06200
H312        H  0.43519271  0.01672453  0.66510799     0.09600
Br313      Br  0.52565042  0.90575208  0.79275528    -0.05900
Br314      Br  0.46155796  0.08909666  0.88936513    -0.02900
Br315      Br  0.59299992  0.96371317  0.64089047     0.00000
Br316      Br  0.40805995  0.02871414  0.75630390    -0.04400
C317        C  0.50407314  0.98473113  0.38667333    -0.11800
C318        C  0.53966776  0.96725718  0.35780791     0.03700
C319        C  0.53947050  0.96825170  0.31267102    -0.12300
C320        C  0.50442252  0.98667537  0.29346419     0.18500
C321        C  0.46864335  0.00350661  0.32212959    -0.09400
C322        C  0.46856976  0.00225328  0.36736073    -0.02300
H323        H  0.56728687  0.95438946  0.29228927     0.05100
C324        C  0.50559596  0.98770572  0.24420527     0.20500
H325        H  0.44047517  0.01583730  0.38754945     0.10200
C326        C  0.49711107  0.95070588  0.22355192    -0.15700
C327        C  0.49756422  0.95063668  0.17834057     0.03200
C328        C  0.50702696  0.98836090  0.15073332    -0.11000
C329        C  0.51579948  0.02526738  0.17174765    -0.01100
C330        C  0.51526201  0.02511792  0.21697594    -0.06200
H331        H  0.48958261  0.92132698  0.24292291     0.06200
H332        H  0.52335327  0.05488623  0.15282679     0.09600
Br333      Br  0.41850435  0.02846882  0.30064232    -0.05900
Br334      Br  0.58923197  0.93903966  0.37811727    -0.02900
Br335      Br  0.48360095  0.89735800  0.15727289     0.00000
Br336      Br  0.52882489  0.07716263  0.24039771    -0.04400
C337        C  0.00625282  0.58033257  0.48636631    -0.11800
C338        C  0.00368855  0.60379544  0.52401310     0.03700
C339        C  0.00374842  0.64954233  0.52150558    -0.12300
C340        C  0.00509075  0.67378079  0.48238066     0.18500
C341        C  0.00740350  0.65073930  0.44487740    -0.09400
C342        C  0.00816545  0.60489281  0.44708099    -0.02300
H343        H  0.00219819  0.66650928  0.55066859     0.05100
C344        C  0.00371988  0.72278196  0.48168332     0.20500
H345        H  0.00988727  0.58844297  0.41761612     0.10200
C346        C  0.03760943  0.74522761  0.45824363    -0.15700
C347        C  0.03753216  0.79097854  0.45734449     0.03200
C348        C  0.00357483  0.81580044  0.48152288    -0.11000
C349        C  0.96947461  0.79321010  0.50454469    -0.01100
C350        C  0.96918541  0.74758317  0.50458894    -0.06200
H351        H  0.06430503  0.72700722  0.44014312     0.06200
H352        H  0.94270948  0.81110972  0.52287261     0.09600
Br353      Br  0.00729091  0.68040135  0.38988459    -0.05900
Br354      Br  0.99827058  0.57669424  0.58061904    -0.02900
Br355      Br  0.08341507  0.81720919  0.41983885     0.00000
Br356      Br  0.91962469  0.72095790  0.53496511    -0.04400
C357        C  0.00058144  0.08015199  0.49412443    -0.11800
C358        C  0.03784239  0.10184344  0.49761740     0.03700
C359        C  0.03624591  0.14756411  0.49784715    -0.12300
C360        C  0.99813483  0.17331863  0.49522493     0.18500
C361        C  0.96081104  0.15197508  0.49244943    -0.09400
C362        C  0.96225014  0.10617461  0.49197425    -0.02300
H363        H  0.06523733  0.16326443  0.50005826     0.05100
C364        C  0.99863686  0.22214902  0.49435471     0.20500
H365        H  0.93309247  0.09090211  0.48955448     0.10200
C366        C  0.99022637  0.24728332  0.45778201    -0.15700
C367        C  0.99249763  0.29284965  0.45480801     0.03200
C368        C  0.00459614  0.31482700  0.48871089    -0.11000
C369        C  0.01224146  0.28941050  0.52565598    -0.01100
C370        C  0.00915868  0.24395518  0.52873290    -0.06200
H371        H  0.98181251  0.23124620  0.43113256     0.06200
H372        H  0.02058180  0.30491200  0.55263964     0.09600
Br373      Br  0.90663666  0.18388134  0.49069316    -0.05900
Br374      Br  0.09204925  0.07180018  0.50405981    -0.02900
Br375      Br  0.97652004  0.32233752  0.40397582     0.00000
Br376      Br  0.01775107  0.21324059  0.58149491    -0.04400
C377        C  0.98684100  0.66877506  0.99736790    -0.11800
C378        C  0.96490886  0.69563080  0.02953085     0.03700
C379        C  0.96926267  0.74047768  0.02573276    -0.12300
C380        C  0.99482297  0.75917125  0.99026217     0.18500
C381        C  0.01629956  0.73273663  0.95796811    -0.09400
C382        C  0.01205610  0.68793400  0.96160067    -0.02300
H383        H  0.95230224  0.76098440  0.05034229     0.05100
C384        C  0.99824522  0.80648353  0.98703819     0.20500
H385        H  0.02946115  0.66790488  0.93682208     0.10200
C386        C  0.02521747  0.82497270  0.01094578    -0.15700
C387        C  0.03113074  0.86959457  0.00644293     0.03200
C388        C  0.01008808  0.89608624  0.97713811    -0.11000
C389        C  0.98143264  0.87753420  0.95495341    -0.01100
C390        C  0.97528066  0.83316925  0.95986765    -0.06200
H391        H  0.04201326  0.80452149  0.03282481     0.06200
H392        H  0.96455623  0.89735611  0.93269924     0.09600
Br393      Br  0.05265701  0.75632809  0.90901008    -0.05900
Br394      Br  0.92691268  0.67394552  0.07831584    -0.02900
Br395      Br  0.06646862  0.89251136  0.04253360     0.00000
Br396      Br  0.93541395  0.81030450  0.92871592    -0.04400
C397        C  0.98346172  0.17919091  0.01758861    -0.11800
C398        C  0.95373336  0.20895627  0.00046871     0.03700
C399        C  0.95767898  0.25361333  0.00169183    -0.12300
C400        C  0.99079292  0.26914690  0.01979355     0.18500
C401        C  0.02059822  0.23965262  0.03663249    -0.09400
C402        C  0.01700757  0.19495928  0.03510396    -0.02300
H403        H  0.93495787  0.27638613  0.98829514     0.05100
C404        C  0.99386781  0.31638119  0.02009298     0.20500
H405        H  0.03975343  0.17245274  0.04878350     0.10200
C406        C  0.96869162  0.33963082  0.05260948    -0.15700
C407        C  0.96849370  0.38498521  0.05214155     0.03200
C408        C  0.99371551  0.40768493  0.01823192    -0.11000
C409        C  0.01933341  0.38394577  0.98605371    -0.01100
C410        C  0.01969959  0.33862931  0.98692093    -0.06200
H411        H  0.94849860  0.32242344  0.07800793     0.06200
H412        H  0.03908406  0.40070072  0.95998728     0.09600
Br413      Br  0.06583649  0.25911116  0.06290166    -0.05900
Br414      Br  0.90845982  0.19074353  0.97325814    -0.02900
Br415      Br  0.93067265  0.41355911  0.09704927     0.00000
Br416      Br  0.05514121  0.30831810  0.94176545    -0.04400
C417        C  0.63123438  0.98006296  0.98322195    -0.11800
C418        C  0.64790055  0.00329893  0.94524702     0.03700
C419        C  0.69170351  0.00925686  0.93607044    -0.12300
C420        C  0.71918436  0.99202892  0.96421016     0.18500
C421        C  0.70317286  0.96574822  0.00021325    -0.09400
C422        C  0.65925636  0.95972124  0.00947043    -0.02300
H423        H  0.70397975  0.02929379  0.90819823     0.05100
C424        C  0.76252409  0.00741894  0.95961907     0.20500
H425        H  0.64669364  0.94189192  0.03870523     0.10200
C426        C  0.76833879  0.04350053  0.98212560    -0.15700
C427        C  0.80923454  0.05698599  0.98300721     0.03200
C428        C  0.84551345  0.03449037  0.95987360    -0.11000
C429        C  0.83898482  0.99944881  0.93559989    -0.01100
C430        C  0.79793480  0.98561953  0.93571763    -0.06200
H431        H  0.74083788  0.06019989  0.00064690     0.06200
H432        H  0.86601378  0.98147758  0.91774065     0.09600
Br433      Br  0.73980907  0.94084556  0.03933160    -0.05900
Br434      Br  0.61179222  0.02917385  0.90591883    -0.02900
Br435      Br  0.81194371  0.10410148  0.01930181     0.00000
Br436      Br  0.79174912  0.93536946  0.90511738    -0.04400
C437        C  0.15879807  0.04555408  0.01219548    -0.11800
C438        C  0.16772926  0.05034315  0.05376519     0.03700
C439        C  0.21045055  0.04949354  0.06067854    -0.12300
C440        C  0.24424551  0.04373999  0.02669602     0.18500
C441        C  0.23533491  0.04063533  0.98509257    -0.09400
C442        C  0.19303963  0.04228708  0.97811472    -0.02300
H443        H  0.21738314  0.05153231  0.09283462     0.05100
C444        C  0.28863240  0.03696808  0.03498874     0.20500
H445        H  0.18693791  0.03879943  0.94586653     0.10200
C446        C  0.30278517  0.99599993  0.05107750    -0.15700
C447        C  0.34635537  0.98554452  0.05236346     0.03200
C448        C  0.37638783  0.01679347  0.03747920    -0.11000
C449        C  0.36140742  0.05857809  0.02345126    -0.01100
C450        C  0.31808019  0.06870701  0.02194461    -0.06200
H451        H  0.27998439  0.97147405  0.06105986     0.06200
H452        H  0.38363510  0.08321543  0.01177237     0.09600
Br453      Br  0.27968418  0.02988845  0.93728428    -0.05900
Br454      Br  0.12383167  0.05332001  0.10263852    -0.02900
Br455      Br  0.36210913  0.92832245  0.07463191     0.00000
Br456      Br  0.30092162  0.12545788  0.99954923    -0.04400
C457        C  0.01591362  0.99239483  0.82630072    -0.11800
C458        C  0.99282227  0.01812524  0.79813678     0.03700
C459        C  0.99200670  0.00409555  0.75726988    -0.12300
C460        C  0.01263451  0.96415878  0.74418917     0.18500
C461        C  0.03482492  0.93805673  0.77250567    -0.09400
C462        C  0.03652910  0.95238967  0.81292829    -0.02300
H463        H  0.97532754  0.02463420  0.73535969     0.05100
C464        C  0.01183320  0.95141933  0.70030860     0.20500
H465        H  0.05367788  0.93161347  0.83427749     0.10200
C466        C  0.05051937  0.94570925  0.67221322    -0.15700
C467        C  0.05085572  0.93824792  0.62915677     0.03200
C468        C  0.01153362  0.93826770  0.61318058    -0.11000
C469        C  0.97297852  0.94139894  0.64226077    -0.01100
C470        C  0.97288563  0.94766627  0.68536626    -0.06200
H471        H  0.08069901  0.94805757  0.68367035     0.06200
H472        H  0.94234611  0.94026043  0.63140989     0.09600
Br473      Br  0.06195675  0.88187906  0.75837468    -0.05900
Br474      Br  0.96302604  0.07318534  0.81225376    -0.02900
Br475      Br  0.10626240  0.92861395  0.59504036     0.00000
Br476      Br  0.91860507  0.95105652  0.72241431    -0.04400
C477        C  0.98859184  0.96841652  0.36446734    -0.11800
C478        C  0.95093540  0.99019876  0.35236096     0.03700
C479        C  0.94934363  0.00149110  0.30940386    -0.12300
C480        C  0.98435471  0.99150604  0.27802793     0.18500
C481        C  0.02136171  0.96892800  0.28952381    -0.09400
C482        C  0.02332246  0.95764489  0.33250673    -0.02300
H483        H  0.92082218  0.01891029  0.30038001     0.05100
C484        C  0.98168097  0.00580396  0.23353020     0.20500
H485        H  0.05224836  0.94058481  0.34092536     0.10200
C486        C  0.00344299  0.04205357  0.21530720    -0.15700
C487        C  0.00065093  0.05695079  0.17326052     0.03200
C488        C  0.97655036  0.03472841  0.14899499    -0.11000
C489        C  0.95364557  0.99949788  0.16782676    -0.01100
C490        C  0.95588855  0.98504594  0.20989315    -0.06200
H491        H  0.02201369  0.05910487  0.23408429     0.06200
H492        H  0.93467272  0.98251446  0.14938101     0.09600
Br493      Br  0.06957098  0.95253696  0.24750537    -0.05900
Br494      Br  0.90120274  0.00846545  0.39197744    -0.02900
Br495      Br  0.02671446  0.10964601  0.15166032     0.00000
Br496      Br  0.92406903  0.93628595  0.23332961    -0.04400
loop_ 
_geom_bond_atom_site_label_1 
_geom_bond_atom_site_label_2 
_geom_bond_distance 
_geom_bond_site_symmetry_2 
_ccdc_geom_bond_type 
O1           Ni7   1.907       .  S
O1           C22   1.269   1_556  A
O2          Ni25   1.904       .  S
O2           C11   1.264       .  A
O3           Ni7   1.911       .  S
O3          Ni25   1.911   1_455  S
O3          Ni19   1.924   1_556  S
O3           H26   0.967       .  S
C4           O21   1.279   1_655  A
C4           O13   1.276       .  A
C4          C488   1.461       .  S
O5          Ni24   1.915   1_556  S
O5           C11   1.265       .  A
O6          Ni24   1.901       .  S
O6            C8   1.266       .  A
Ni7          O10   1.924   1_545  S
Ni7          O12   1.903   1_545  S
C8           O18   1.270   1_655  A
C8          C397   1.470       .  S
O9          Ni25   1.898       .  S
O9           C15   1.267   1_655  A
O10          C15   1.272   1_565  A
C11         C428   1.484       .  S
O12          C14   1.267       .  A
O13         Ni24   1.910       .  S
C14          O20   1.272   1_455  A
C14         C388   1.474       .  S
C15         C457   1.476   1_545  S
H16          O17   0.966       .  S
O17         Ni25   1.902   1_554  S
O17         Ni19   1.897   1_655  S
O17         Ni24   1.901       .  S
O18         Ni19   1.918       .  S
Ni19         O23   1.915       .  S
Ni19         O21   1.921       .  S
O20         Ni25   1.932   1_565  S
C22          O23   1.270       .  A
C22         C437   1.476       .  S
O27         Ni35   1.946   1_545  S
O27          C37   1.287   1_655  A
O28         Ni35   1.940       .  S
O28          C38   1.286   1_655  A
O29         Ni35   1.901       .  S
O29          C39   1.279   1_655  A
O30         Ni35   1.901       .  S
O30          C40   1.276       .  A
O31         Ni36   1.916       .  S
O31          C40   1.282   1_455  A
O32         Ni36   1.917       .  S
O32          C39   1.280       .  A
O33         Ni36   1.931       .  S
O33          C38   1.283       .  A
O34         Ni36   1.930   1_545  S
O34          C37   1.283       .  A
Ni35        Ni36   2.379   1_655  S
C37         C357   1.511       .  S
C38         C348   1.507       .  S
C39         C468   1.484       .  S
C40         C477   1.477       .  S
O41         Ni49   1.894       .  S
O41          C51   1.276   1_544  A
O42         Ni49   1.889       .  S
O42          C52   1.276       .  A
O43         Ni49   1.987       .  S
O43          C53   1.296   1_545  A
O44         Ni49   1.983   1_556  S
O44          C54   1.295   1_545  A
O45         Ni50   1.970   1_556  S
O45          C54   1.291       .  A
O46         Ni50   1.975       .  S
O46          C53   1.292       .  A
O47         Ni50   1.925       .  S
O47          C52   1.283   1_565  A
O48         Ni50   1.928       .  S
O48          C51   1.282   1_554  A
Ni49        Ni50   2.374   1_545  S
C51         C417   1.465       .  S
C52         C448   1.478       .  S
C53         C328   1.564       .  S
C54         C297   1.555       .  S
O55         Ni63   1.910       .  S
O55          C65   1.278       .  A
O56         Ni63   1.904       .  S
O56          C66   1.277       .  A
O57         Ni63   1.983       .  S
O57          C67   1.295       .  A
O58         Ni63   1.982   1_455  S
O58          C68   1.295       .  A
O59         Ni64   1.967   1_455  S
O59          C68   1.290   1_556  A
O60         Ni64   1.969       .  S
O60          C67   1.290   1_556  A
O61         Ni64   1.912       .  S
O61          C66   1.281   1_556  A
O62         Ni64   1.914       .  S
O62          C65   1.281   1_556  A
Ni63        Ni64   2.373   1_554  S
C65         C408   1.476       .  S
C66         C377   1.474   1_554  S
C67         C268   1.558       .  S
C68         C288   1.557       .  S
O69         Ni77   1.903   1_655  S
O69          C79   1.280       .  A
O70         Ni77   1.910       .  S
O70          C80   1.279       .  A
O71         Ni77   1.937       .  S
O71          C81   1.285       .  A
O72         Ni77   1.940       .  S
O72          C82   1.286       .  A
O73         Ni78   1.937       .  S
O73          C82   1.284       .  A
O74         Ni78   1.936       .  S
O74          C81   1.286       .  A
O75         Ni78   1.905       .  S
O75          C80   1.279       .  A
O76         Ni78   1.904   1_655  S
O76          C79   1.277       .  A
Ni77        Ni78   2.381       .  S
C79         C237   1.466       .  S
C80         C217   1.469       .  S
C81         C368   1.512       .  S
C82         C337   1.515       .  S
O83         Ni89   1.918       .  S
O83         C104   1.268       .  A
O84        Ni107   1.877       .  S
O84          C93   1.260       .  A
O85         Ni89   1.903       .  S
O85        Ni107   1.882       .  S
O85        Ni101   1.894       .  S
O85         H108   0.965       .  S
C86         O103   1.270       .  A
C86          O95   1.279       .  A
C86         C197   1.455       .  S
O87        Ni106   1.947       .  S
O87          C93   1.277       .  A
O88        Ni106   1.902       .  S
O88          C90   1.269       .  A
Ni89         O92   1.912       .  S
Ni89         O94   1.909       .  S
C90         O100   1.273       .  A
C90         C157   1.480       .  S
O91        Ni107   1.895       .  S
O91          C97   1.270       .  A
O92          C97   1.275       .  A
C93         C228   1.476       .  S
O94          C96   1.267       .  A
O95        Ni106   1.932       .  S
C96         O102   1.265       .  A
C96         C148   1.473       .  S
C97         C177   1.453       .  S
H98          O99   0.965       .  S
O99        Ni107   1.889       .  S
O99        Ni101   1.898       .  S
O99        Ni106   1.896       .  S
O100       Ni101   1.934       .  S
Ni101       O105   1.897       .  S
Ni101       O103   1.883       .  S
O102       Ni107   1.912       .  S
C104        O105   1.267       .  A
C104        C248   1.459       .  S
O109       Ni117   1.895   1_556  S
O109        C119   1.275       .  A
O110       Ni117   1.886       .  S
O110        C120   1.275       .  A
O111       Ni117   1.974       .  S
O111        C121   1.293       .  A
O112       Ni117   1.977       .  S
O112        C122   1.293       .  A
O113       Ni118   1.974       .  S
O113        C122   1.292   1_556  A
O114       Ni118   1.976       .  S
O114        C121   1.293   1_556  A
O115       Ni118   1.906   1_554  S
O115        C120   1.278       .  A
O116       Ni118   1.911       .  S
O116        C119   1.281       .  A
Ni117      Ni118   2.376   1_554  S
C119        C208   1.474       .  S
C120        C188   1.451       .  S
C121        C277   1.554       .  S
C122        C257   1.551       .  S
O123       Ni131   1.921       .  S
O123        C133   1.282       .  A
O124       Ni131   1.914   1_545  S
O124        C134   1.279       .  A
O125       Ni131   1.985       .  S
O125        C135   1.295       .  A
O126       Ni131   1.981       .  S
O126        C136   1.294       .  A
O127       Ni132   1.975       .  S
O127        C136   1.293       .  A
O128       Ni132   1.975       .  S
O128        C135   1.293       .  A
O129       Ni132   1.902   1_545  S
O129        C134   1.279       .  A
O130       Ni132   1.905       .  S
O130        C133   1.277       .  A
Ni131      Ni132   2.376       .  S
C133        C168   1.468       .  S
C134        C137   1.470       .  S
C135        C317   1.558       .  S
C136        C308   1.559       .  S
C137        C138   1.413       .  A
C137        C142   1.404       .  A
C138        C139   1.398       .  A
C138       Br154   1.920       .  S
C139        C140   1.400       .  A
C139        H143   1.084       .  S
C140        C144   1.465       .  S
C140        C141   1.403       .  A
C141        C142   1.391       .  A
C141       Br153   1.919       .  S
C142        H145   1.084       .  S
C144        C146   1.397       .  A
C144        C150   1.404       .  A
C146        C147   1.395       .  A
C146        H151   1.084       .  S
C147        C148   1.414       .  A
C147       Br155   1.919       .  S
C148        C149   1.405       .  A
C149        C150   1.395       .  A
C149        H152   1.084       .  S
C150       Br156   1.919       .  S
C157        C158   1.413       .  A
C157        C162   1.409       .  A
C158        C159   1.395       .  A
C158       Br174   1.920       .  S
C159        C160   1.398       .  A
C159        H163   1.084       .  S
C160        C164   1.472       .  S
C160        C161   1.405       .  A
C161        C162   1.401       .  A
C161       Br173   1.918       .  S
C162        H165   1.084       .  S
C164        C166   1.403       .  A
C164        C170   1.405       .  A
C166        C167   1.399       .  A
C166        H171   1.084       .  S
C167        C168   1.408       .  A
C167       Br175   1.920       .  S
C168        C169   1.403       .  A
C169        C170   1.396       .  A
C169        H172   1.084       .  S
C170       Br176   1.917       .  S
C177        C178   1.411       .  A
C177        C182   1.400       .  A
C178        C179   1.387       .  A
C178       Br194   1.922       .  S
C179        C180   1.393       .  A
C179        H183   1.084       .  S
C180        C184   1.451       .  S
C180        C181   1.406       .  A
C181        C182   1.393       .  A
C181       Br193   1.920       .  S
C182        H185   1.084       .  S
C184        C186   1.398       .  A
C184        C190   1.401       .  A
C186        C187   1.390       .  A
C186        H191   1.084       .  S
C187        C188   1.408       .  A
C187       Br195   1.921       .  S
C188        C189   1.402       .  A
C189        C190   1.388       .  A
C189        H192   1.084       .  S
C190       Br196   1.919       .  S
C197        C198   1.406       .  A
C197        C202   1.403       .  A
C198        C199   1.391       .  A
C198       Br214   1.920       .  S
C199        C200   1.400       .  A
C199        H203   1.084       .  S
C200        C204   1.458       .  S
C200        C201   1.402       .  A
C201        C202   1.392       .  A
C201       Br213   1.918       .  S
C202        H205   1.084       .  S
C204        C206   1.395       .  A
C204        C210   1.401       .  A
C206        C207   1.392       .  A
C206        H211   1.084       .  S
C207        C208   1.419       .  A
C207       Br215   1.924       .  S
C208        C209   1.407       .  A
C209        C210   1.392       .  A
C209        H212   1.083       .  S
C210       Br216   1.919       .  S
C217        C218   1.410       .  A
C217        C222   1.406       .  A
C218        C219   1.392       .  A
C218       Br234   1.922       .  S
C219        C220   1.400       .  A
C219        H223   1.084       .  S
C220        C224   1.466       .  S
C220        C221   1.404       .  A
C221        C222   1.397       .  A
C221       Br233   1.918       .  S
C222        H225   1.083       .  S
C224        C226   1.396       .  A
C224        C230   1.406       .  A
C226        C227   1.396       .  A
C226        H231   1.084       .  S
C227        C228   1.418       .  A
C227       Br235   1.922       .  S
C228        C229   1.404       .  A
C229        C230   1.393       .  A
C229        H232   1.083       .  S
C230       Br236   1.920       .  S
C237        C238   1.411       .  A
C237        C242   1.403       .  A
C238        C239   1.395       .  A
C238       Br254   1.921       .  S
C239        C240   1.401       .  A
C239        H243   1.084       .  S
C240        C244   1.464       .  S
C240        C241   1.406       .  A
C241        C242   1.390       .  A
C241       Br253   1.921       .  S
C242        H245   1.084       .  S
C244        C246   1.400       .  A
C244        C250   1.406       .  A
C246        C247   1.390       .  A
C246        H251   1.084       .  S
C247        C248   1.407       .  A
C247       Br255   1.922       .  S
C248        C249   1.404       .  A
C249        C250   1.395       .  A
C249        H252   1.084       .  S
C250       Br256   1.920       .  S
C257        C258   1.426       .  A
C257        C262   1.417   1_554  A
C258        C259   1.430       .  A
C258       Br274   1.918       .  S
C259        C260   1.416       .  A
C259        H263   1.083       .  S
C260        C264   1.553       .  S
C260        C261   1.422   1_554  A
C261        C262   1.428       .  A
C261       Br273   1.917       .  S
C262        H265   1.083       .  S
C264        C266   1.413   1_554  A
C264        C270   1.422       .  A
C266        C267   1.428       .  A
C266        H271   1.083       .  S
C267        C268   1.431   1_556  A
C267       Br275   1.919       .  S
C268        C269   1.420       .  A
C269        C270   1.431       .  A
C269        H272   1.083       .  S
C270       Br276   1.916       .  S
C277        C278   1.428       .  A
C277        C282   1.418   1_554  A
C278        C279   1.430       .  A
C278       Br294   1.918       .  S
C279        C280   1.415       .  A
C279        H283   1.083       .  S
C280        C284   1.552       .  S
C280        C281   1.421   1_554  A
C281        C282   1.428       .  A
C281       Br293   1.916       .  S
C282        H285   1.083       .  S
C284        C286   1.413   1_554  A
C284        C290   1.422       .  A
C286        C287   1.427       .  A
C286        H291   1.083       .  S
C287        C288   1.431   1_556  A
C287       Br295   1.919       .  S
C288        C289   1.420       .  A
C289        C290   1.430       .  A
C289        H292   1.083       .  S
C290       Br296   1.916       .  S
C297        C298   1.427   1_565  A
C297        C302   1.417       .  A
C298        C299   1.432       .  A
C298       Br314   1.918       .  S
C299        C300   1.419   1_545  A
C299        H303   1.082       .  S
C300        C304   1.559       .  S
C300        C301   1.423       .  A
C301        C302   1.428       .  A
C301       Br313   1.918       .  S
C302        H305   1.083       .  S
C304        C306   1.416       .  A
C304        C310   1.425   1_565  A
C306        C307   1.429       .  A
C306        H311   1.083       .  S
C307        C308   1.428       .  A
C307       Br315   1.918       .  S
C308        C309   1.420   1_565  A
C309        C310   1.432       .  A
C309        H312   1.083       .  S
C310       Br316   1.917       .  S
C317        C318   1.428       .  A
C317        C322   1.420   1_565  A
C318        C319   1.431       .  A
C318       Br334   1.918       .  S
C319        C320   1.415       .  A
C319        H323   1.083       .  S
C320        C324   1.556       .  S
C320        C321   1.422   1_565  A
C321        C322   1.433       .  A
C321       Br333   1.916       .  S
C322        H325   1.083       .  S
C324        C326   1.414       .  A
C324        C330   1.420   1_565  A
C326        C327   1.432       .  A
C326        H331   1.083       .  S
C327        C328   1.433       .  A
C327       Br335   1.919       .  S
C328        C329   1.421   1_565  A
C329        C330   1.432       .  A
C329        H332   1.082       .  S
C330       Br336   1.915       .  S
C337        C338   1.423       .  A
C337        C342   1.413       .  A
C338        C339   1.408       .  A
C338       Br354   1.921   1_455  S
C339        C340   1.405       .  A
C339        H343   1.083       .  S
C340        C344   1.508       .  S
C340        C341   1.412       .  A
C341        C342   1.410       .  A
C341       Br353   1.919       .  S
C342        H345   1.083       .  S
C344        C346   1.407       .  A
C344        C350   1.413   1_455  A
C346        C347   1.409       .  A
C346        H351   1.083       .  S
C347        C348   1.420       .  A
C347       Br355   1.921       .  S
C348        C349   1.409   1_455  A
C349        C350   1.408       .  A
C349        H352   1.083       .  S
C350       Br356   1.919       .  S
C357        C358   1.422       .  A
C357        C362   1.412   1_455  A
C358        C359   1.408       .  A
C358       Br374   1.921       .  S
C359        C360   1.404   1_455  A
C359        H363   1.083       .  S
C360        C364   1.506       .  S
C360        C361   1.413       .  A
C361        C362   1.411       .  A
C361       Br373   1.918       .  S
C362        H365   1.083       .  S
C364        C366   1.405       .  A
C364        C370   1.412   1_655  A
C366        C367   1.409       .  A
C366        H371   1.083       .  S
C367        C368   1.422   1_655  A
C367       Br375   1.921       .  S
C368        C369   1.412       .  A
C369        C370   1.409       .  A
C369        H372   1.083       .  S
C370       Br376   1.919       .  S
C377        C378   1.415   1_556  A
C377        C382   1.405   1_655  A
C378        C379   1.396       .  A
C378       Br394   1.921       .  S
C379        C380   1.398   1_554  A
C379        H383   1.084       .  S
C380        C384   1.468       .  S
C380        C381   1.405   1_655  A
C381        C382   1.394       .  A
C381       Br393   1.920       .  S
C382        H385   1.084       .  S
C384        C386   1.401   1_656  A
C384        C390   1.403       .  A
C386        C387   1.399       .  A
C386        H391   1.084       .  S
C387        C388   1.413   1_554  A
C387       Br395   1.921       .  S
C388        C389   1.406   1_455  A
C389        C390   1.393       .  A
C389        H392   1.084       .  S
C390       Br396   1.919       .  S
C397        C398   1.412       .  A
C397        C402   1.404   1_655  A
C398        C399   1.396       .  A
C398       Br414   1.921   1_554  S
C399        C400   1.400       .  A
C399        H403   1.084   1_554  S
C400        C404   1.468       .  S
C400        C401   1.404   1_655  A
C401        C402   1.396       .  A
C401       Br413   1.918       .  S
C402        H405   1.084       .  S
C404        C406   1.399       .  A
C404        C410   1.403   1_654  A
C406        C407   1.398       .  A
C406        H411   1.084       .  S
C407        C408   1.416       .  A
C407       Br415   1.922       .  S
C408        C409   1.405   1_654  A
C409        C410   1.395       .  A
C409        H412   1.083       .  S
C410       Br416   1.919       .  S
C417        C418   1.411   1_565  A
C417        C422   1.400   1_556  A
C418        C419   1.395       .  A
C418       Br434   1.921       .  S
C419        C420   1.398   1_545  A
C419        H423   1.084       .  S
C420        C424   1.468   1_565  S
C420        C421   1.408   1_556  A
C421        C422   1.399       .  A
C421       Br433   1.918       .  S
C422        H425   1.083       .  S
C424        C426   1.398       .  A
C424        C430   1.401   1_545  A
C426        C427   1.394       .  A
C426        H431   1.084   1_556  S
C427        C428   1.419       .  A
C427       Br435   1.924   1_556  S
C428        C429   1.411   1_545  A
C429        C430   1.398       .  A
C429        H432   1.083       .  S
C430       Br436   1.917       .  S
C437        C438   1.411       .  A
C437        C442   1.407   1_554  A
C438        C439   1.402       .  A
C438       Br454   1.912       .  S
C439        C440   1.402       .  A
C439        H443   1.083       .  S
C440        C444   1.467       .  S
C440        C441   1.403   1_554  A
C441        C442   1.388       .  A
C441       Br453   1.923       .  S
C442        H445   1.084       .  S
C444        C446   1.402   1_545  A
C444        C450   1.402       .  A
C446        C447   1.399       .  A
C446        H451   1.084       .  S
C447        C448   1.413   1_565  A
C447       Br455   1.920       .  S
C448        C449   1.410       .  A
C449        C450   1.391       .  A
C449        H452   1.083       .  S
C450       Br456   1.920   1_554  S
C457        C458   1.412   1_465  A
C457        C462   1.408       .  A
C458        C459   1.397       .  A
C458       Br474   1.921       .  S
C459        C460   1.404   1_645  A
C459        H463   1.084       .  S
C460        C464   1.474       .  S
C460        C461   1.405       .  A
C461        C462   1.392       .  A
C461       Br473   1.921       .  S
C462        H465   1.084       .  S
C464        C466   1.402       .  A
C464        C470   1.404   1_455  A
C466        C467   1.397       .  A
C466        H471   1.084       .  S
C467        C468   1.416       .  A
C467       Br475   1.922       .  S
C468        C469   1.409   1_455  A
C469        C470   1.392       .  A
C469        H472   1.083       .  S
C470       Br476   1.921       .  S
C477        C478   1.418       .  A
C477        C482   1.407   1_655  A
C478        C479   1.393   1_565  A
C478       Br494   1.924   1_565  S
C479        C480   1.396   1_545  A
C479        H483   1.084       .  S
C480        C484   1.466   1_565  S
C480        C481   1.404   1_655  A
C481        C482   1.396       .  A
C481       Br493   1.919       .  S
C482        H485   1.083       .  S
C484        C486   1.403   1_655  A
C484        C490   1.404   1_545  A
C486        C487   1.398       .  A
C486        H491   1.084       .  S
C487        C488   1.406   1_455  A
C487       Br495   1.918       .  S
C488        C489   1.402   1_545  A
C489        C490   1.391       .  A
C489        H492   1.084       .  S
C490       Br496   1.919       .  S
