geometry optimzed in LAMMPS
_audit_creation_date              2020-11-30 
_audit_creation_method            'lammps2cif' 
_symmetry_space_group_name_H-M    'P1' 
_symmetry_Int_Tables_number       1 
_symmetry_cell_setting            triclinic 
loop_ 
_symmetry_equiv_pos_as_xyz 
  x,y,z 
_cell_length_a                    27.95624648 
_cell_length_b                    28.005201762563047 
_cell_length_c                    22.539203283335745 
_cell_angle_alpha                 89.72760998334532 
_cell_angle_beta                  89.72523670409099 
_cell_angle_gamma                 95.49000368032752 
loop_ 
_atom_site_label 
_atom_site_type_symbol 
_atom_site_fract_x 
_atom_site_fract_y 
_atom_site_fract_z 
_atom_site_charge 
O1          O  0.24723083  0.17079227  0.35251552    -0.84200
O2          O  0.24043640  0.16026918  0.69230621    -0.84400
O3          O  0.32358770  0.12662004  0.51226098    -0.86100
O4          O  0.17217467  0.10266466  0.49408648    -0.84800
O5          O  0.10928120  0.14923500  0.50037970    -0.84400
O6          O  0.37659753  0.19451666  0.51103629    -0.85800
O7          O  0.24353992  0.10733205  0.61466399    -0.84300
O8          O  0.25195591  0.11440255  0.42667728    -0.83800
Zr9        Zr  0.24412688  0.15241863  0.52196960     2.84300
O10         O  0.19201821  0.18774845  0.58686485    -1.05800
O11         O  0.28945672  0.21015688  0.46492942    -1.06500
C12         C  0.25080464  0.12710729  0.37179646     1.08900
C13         C  0.24312576  0.11753187  0.67042611     1.08800
C14         C  0.36490295  0.14971211  0.50306512     1.11800
C15         C  0.12850213  0.11128882  0.48439589     1.09600
H16         H  0.30978256  0.18616273  0.60813873     0.35100
O17         O  0.28865265  0.20473393  0.58581854    -1.26800
H18         H  0.17968679  0.17559785  0.43109362     0.34800
O19         O  0.19746545  0.19580483  0.45943332    -1.28400
O20         O  0.23889864  0.32597928  0.69568382    -0.84200
O21         O  0.23997168  0.33487552  0.35817530    -0.85700
O22         O  0.37641016  0.25595649  0.61961184    -0.84300
O23         O  0.10003400  0.22578786  0.61659061    -0.84300
O24         O  0.10471102  0.23879372  0.42909833    -0.84100
O25         O  0.38130376  0.26789877  0.43538468    -0.83900
O26         O  0.30386926  0.39368251  0.54010381    -0.84200
O27         O  0.15159993  0.36345945  0.53377591    -0.83700
O28         O  0.36246073  0.34332028  0.55309778    -0.84800
O29         O  0.09779651  0.29645953  0.53149593    -0.83900
O30         O  0.32058590  0.24770612  0.69534225    -0.84300
O31         O  0.32816825  0.25581873  0.35811258    -0.84000
O32         O  0.16149244  0.24912975  0.35446290    -0.83700
O33         O  0.15420471  0.23959520  0.69284711    -0.84100
O34         O  0.23163855  0.38113081  0.62087890    -0.84400
O35         O  0.22937992  0.38575240  0.43595014    -0.85700
Zr36       Zr  0.23764246  0.24291510  0.65046158     2.83100
Zr37       Zr  0.24360463  0.25195205  0.39947377     2.83500
Zr38       Zr  0.33362975  0.26238625  0.52768737     2.84100
Zr39       Zr  0.14455643  0.22978686  0.52322207     2.83400
Zr40       Zr  0.23249371  0.34009763  0.52735774     2.84200
O41         O  0.18989501  0.28678156  0.46383725    -1.06300
O42         O  0.28182494  0.29936535  0.58930644    -1.05800
C43         C  0.23578829  0.36969506  0.67570161     1.08900
C44         C  0.23375735  0.37686067  0.38031218     1.11500
C45         C  0.36464965  0.25121968  0.67465672     1.09000
C46         C  0.11068018  0.23402515  0.67147204     1.09400
C47         C  0.11735405  0.24552721  0.37446156     1.09000
C48         C  0.37172155  0.26111074  0.37971469     1.08500
C49         C  0.34694508  0.38506844  0.55223103     1.08900
C50         C  0.10892933  0.34176421  0.53583881     1.08500
H51         H  0.30737262  0.33003992  0.44317578     0.35100
O52         O  0.28721637  0.30579509  0.46463256    -1.27400
H53         H  0.16724756  0.30006267  0.61082977     0.35200
O54         O  0.18852327  0.28318641  0.58655611    -1.28800
N55         N  0.50306308  0.43299513  0.42919537    -0.34300
N56         N  0.06136666  0.97029101  0.32445692    -0.54900
N57         N  0.49243481  0.07339445  0.44109553    -0.34300
N58         N  0.43810694  0.03844389  0.33439551    -0.54900
C59         C  0.97508788  0.39812630  0.61563672     0.29200
C60         C  0.46912973  0.41854504  0.46954512     0.29200
C61         C  0.04360302  0.07043955  0.32800610     0.29200
C62         C  0.48822346  0.11120226  0.40508341     0.29200
C63         C  0.99040863  0.42712157  0.51177447     0.37900
C64         C  0.09674818  0.00584353  0.33125433     0.37900
C65         C  0.47431453  0.49210930  0.52714855     0.37900
C66         C  0.41854897  0.07912456  0.34837199     0.37900
C67         C  0.96663555  0.36209611  0.65770752    -0.19600
C68         C  0.44667374  0.37452980  0.45289538    -0.19600
C69         C  0.03940508  0.11848214  0.31652813    -0.19600
C70         C  0.51694797  0.15039922  0.42636373    -0.19600
C71         C  0.01317527  0.42339847  0.45695893    -0.20700
C72         C  0.13943511  0.98748150  0.34538702    -0.20700
C73         C  0.45504857  0.52108121  0.56862258    -0.20700
C74         C  0.36895540  0.07056317  0.35188293    -0.20700
C75         C  0.98974959  0.39114711  0.55628518    -0.16000
C76         C  0.46224714  0.44268045  0.52332432    -0.16000
C77         C  0.44388755  0.11671366  0.37971497    -0.16000
C78         C  0.08833473  0.05378974  0.33898499    -0.16000
H79         H  0.97185191  0.32461477  0.65218265     0.16900
H80         H  0.42081944  0.35146407  0.47735846     0.16900
H81         H  0.06719921  0.14416619  0.29859884     0.16900
H82         H  0.51537384  0.18731280  0.41299657     0.16900
H83         H  0.01884682  0.39049641  0.43404752     0.15200
H84         H  0.17258008  0.00741476  0.35875200     0.15200
H85         H  0.43833689  0.51030715  0.61063375     0.15200
H86         H  0.34414195  0.09523518  0.36684158     0.15200
H87         H  0.53193136  0.45866221  0.43716310     0.27000
H88         H  0.46786187  0.04290151  0.44255448     0.28400
O89         O  0.48867453  0.41320075  0.85799009    -0.84200
O90         O  0.50162363  0.41890418  0.19513231    -0.84400
O91         O  0.07777554  0.38535550  0.01516177    -0.86100
O92         O  0.45454577  0.34304423  0.04940094    -0.84800
O93         O  0.38446326  0.37834722  0.05673270    -0.84400
O94         O  0.13072613  0.45276106  0.00552984    -0.85800
O95         O  0.52323533  0.36856476  0.12103313    -0.84300
O96         O  0.50653929  0.36256764  0.93374814    -0.83800
Zr97       Zr  0.51213926  0.40823489  0.02624207     2.84300
O98         O  0.45851650  0.43917983  0.09220095    -1.05800
O99         O  0.04213746  0.46670201  0.96236317    -1.06500
C100        C  0.49709910  0.37122556  0.87891434     1.08900
C101        C  0.51254612  0.37741101  0.17542565     1.08800
C102        C  0.11901029  0.40731257  0.00337314     1.11800
C103        C  0.40978377  0.34228662  0.06093355     1.09600
H104        H  0.06915148  0.45148396  0.10531094     0.35100
O105        O  0.04703588  0.46888566  0.08300109    -1.26800
H106        H  0.43190172  0.40751863  0.94663690     0.34800
O107        O  0.44970627  0.43348481  0.96731093    -1.28400
O108        O  0.50178547  0.08764041  0.18812589    -0.84200
O109        O  0.49735355  0.07932556  0.84870432    -0.85700
O110        O  0.13602834  0.52378200  0.11021904    -0.84300
O111        O  0.35855551  0.46730359  0.13105718    -0.84300
O112        O  0.36216410  0.98051747  0.93310844    -0.84100
O113        O  0.13504180  0.00620492  0.92892246    -0.83900
O114        O  0.05997617  0.14369041  0.99436716    -0.84200
O115        O  0.41565859  0.11728065  0.00137742    -0.83700
O116        O  0.12444379  0.09879300  0.00073002    -0.84800
O117        O  0.36189973  0.05005850  0.00406688    -0.83900
O118        O  0.08251706  0.51290111  0.18827649    -0.84300
O119        O  0.07860766  0.99594759  0.85479161    -0.84000
O120        O  0.41550760  0.99537504  0.85575528    -0.83700
O121        O  0.41454706  0.49216141  0.20200575    -0.84100
O122        O  0.49541426  0.14088803  0.11094766    -0.84400
O123        O  0.49408601  0.13501578  0.92334852    -0.85700
Zr124      Zr  0.49554801  0.50108629  0.15161410     2.83100
Zr125      Zr  0.49985335  0.99772172  0.89537622     2.83500
Zr126      Zr  0.08942397  0.52328053  0.01828278     2.84100
Zr127      Zr  0.39714691  0.46417640  0.03457342     2.83400
Zr128      Zr  0.49675581  0.09567116  0.01841904     2.84200
O129        O  0.45272404  0.03838057  0.96076101    -1.06300
O130        O  0.04481325  0.05870165  0.08302995    -1.05800
C131        C  0.49765734  0.13059621  0.16677257     1.08900
C132        C  0.49500110  0.12290004  0.86843043     1.11500
C133        C  0.12590122  0.51683818  0.16583940     1.09000
C134        C  0.37051944  0.48091349  0.18386223     1.09400
C135        C  0.37205210  0.98887005  0.87793055     1.09000
C136        C  0.12275774  0.99937876  0.87457392     1.08500
C137        C  0.10478796  0.13752898  0.98803582     1.08900
C138        C  0.37383094  0.09455009  0.99377124     1.08500
H139        H  0.05732574  0.07116401  0.93171325     0.35100
O140        O  0.03984787  0.05017786  0.95996064    -1.27400
H141        H  0.43177604  0.06110844  0.10469025     0.35200
O142        O  0.45300232  0.04258760  0.08246054    -1.28800
N143        N  0.24830073  0.19017077  0.84027294    -0.34300
N144        N  0.32935105  0.23853719  0.89685010    -0.54900
N145        N  0.28929847  0.32844514  0.92682038    -0.34300
N146        N  0.20877959  0.28316594  0.86811489    -0.54900
C147        C  0.27352089  0.15260798  0.85281206     0.29200
C148        C  0.20185326  0.17494727  0.85101145     0.29200
C149        C  0.31116237  0.31803019  0.97780677     0.29200
C150        C  0.25589541  0.35770702  0.94161426     0.29200
C151        C  0.34987877  0.20076668  0.87531733     0.37900
C152        C  0.36120482  0.26111867  0.93417563     0.37900
C153        C  0.17063688  0.25427417  0.84909499     0.37900
C154        C  0.19504933  0.32814277  0.86857525     0.37900
C155        C  0.24242769  0.11170259  0.86274662    -0.19600
C156        C  0.19698550  0.12592020  0.86178159    -0.19600
C157        C  0.29327052  0.34294614  0.02447121    -0.19600
C158        C  0.26079791  0.37077998  0.00089295    -0.19600
C159        C  0.39729332  0.20337807  0.89391845    -0.20700
C160        C  0.40419096  0.24092726  0.93234123    -0.20700
C161        C  0.13299181  0.28080320  0.83600169    -0.20700
C162        C  0.14898408  0.32789583  0.84558176    -0.20700
C163        C  0.32245517  0.15637723  0.86779156    -0.16000
C164        C  0.16504075  0.20500404  0.86055536    -0.16000
C165        C  0.21493586  0.36380635  0.90782060    -0.16000
C166        C  0.34582100  0.28557133  0.98300979    -0.16000
H167        H  0.25157387  0.07649441  0.87582582     0.16900
H168        H  0.16440395  0.10358384  0.87286668     0.16900
H169        H  0.30152677  0.34055616  0.07115282     0.16900
H170        H  0.23938331  0.39335523  0.02670228     0.16900
H171        H  0.41992800  0.17467064  0.89198498     0.15200
H172        H  0.43430457  0.24784030  0.96214326     0.15200
H173        H  0.09654032  0.26707956  0.82638278     0.15200
H174        H  0.12664262  0.35741104  0.84467991     0.15200
H175        H  0.26221077  0.22510776  0.83018250     0.28400
H176        H  0.29500002  0.31506550  0.88452572     0.28400
C177        C  0.99524999  0.25687614  0.27255237    -0.00200
C178        C  0.24433733  0.50010169  0.27507171    -0.00200
C179        C  0.99069949  0.24829821  0.77834007    -0.00200
C180        C  0.24798612  0.99527447  0.77523979    -0.00200
C181        C  0.20271829  0.50422052  0.23404206    -0.11000
C182        C  0.16698495  0.51063305  0.20467830    -0.12600
C183        C  0.29067249  0.49443165  0.24395705    -0.11000
C184        C  0.32952644  0.48779315  0.22199161    -0.12600
C185        C  0.51028553  0.33568933  0.21545896    -0.11000
C186        C  0.50571952  0.29731257  0.24243508    -0.12600
C187        C  0.49533321  0.17139898  0.20745607    -0.11000
C188        C  0.98941110  0.21261198  0.23353351    -0.12600
C189        C  0.15423894  0.37845661  0.97961845    -0.14200
C190        C  0.18166295  0.39516212  0.93367514    -0.29300
H191        H  0.15488994  0.34166777  0.99515803     0.14900
H192        H  0.17948758  0.43064515  0.91496775     0.15400
C193        C  0.38623138  0.29597819  0.07976487    -0.14200
C194        C  0.35875860  0.26876948  0.04265813    -0.29300
H195        H  0.39665680  0.28073018  0.12159689     0.14900
H196        H  0.34659725  0.23220536  0.05566511     0.15400
C197        C  0.33926375  0.11996218  0.96217363    -0.14200
C198        C  0.33903729  0.11649635  0.90256333    -0.29300
H199        H  0.32336288  0.14909751  0.98423496     0.14900
H200        H  0.35872724  0.09030323  0.87992903     0.15400
C201        C  0.13526849  0.17511749  0.95700187    -0.14200
C202        C  0.12507972  0.18654097  0.90039876    -0.29300
H203        H  0.17155062  0.18372598  0.97347310     0.14900
H204        H  0.09041570  0.17486553  0.88107994     0.15400
C205        C  0.33005628  0.99253020  0.83968570    -0.11000
C206        C  0.29235120  0.99551041  0.81274640    -0.12600
C207        C  0.16343319  0.99505226  0.83480836    -0.11000
C208        C  0.20221826  0.99332700  0.80999186    -0.12600
C209        C  0.49329576  0.16330124  0.82781655    -0.11000
C210        C  0.49082098  0.20234975  0.80424359    -0.12600
C211        C  0.49492316  0.32943706  0.83943829    -0.11000
C212        C  0.49373211  0.29211827  0.81087531    -0.12600
C213        C  0.44471058  0.24823745  0.73826629    -0.11000
C214        C  0.40572008  0.24917603  0.71406999    -0.12600
C215        C  0.03336898  0.24611483  0.73865953    -0.11000
C216        C  0.06968365  0.24005605  0.71027281    -0.12600
C217        C  0.24969624  0.03995269  0.73864156    -0.11000
C218        C  0.24684075  0.07688676  0.71035330    -0.12600
C219        C  0.23752304  0.41119363  0.71543998    -0.11000
C220        C  0.23906663  0.45070369  0.73921200    -0.12600
C221        C  0.39953534  0.12515934  0.47129800    -0.14200
C222        C  0.41510358  0.14423001  0.41884682    -0.29300
H223        H  0.40621324  0.08907404  0.48455132     0.14900
H224        H  0.40353672  0.17746423  0.40276492     0.15400
C225        C  0.10165672  0.08009909  0.44211063    -0.14200
C226        C  0.11724544  0.08015458  0.38516964    -0.29300
H227        H  0.06685056  0.06249309  0.45466151     0.14900
H228        H  0.15113575  0.09961204  0.37226913     0.15400
C229        C  0.07048886  0.37181346  0.54536801    -0.14200
C230        C  0.02391278  0.35507832  0.54837004    -0.29300
H231        H  0.08085095  0.41011018  0.54990164     0.14900
H232        H  0.01175786  0.31709446  0.54673838     0.15400
C233        C  0.38236480  0.42613365  0.56018991    -0.14200
C234        C  0.42871347  0.41870779  0.56649166    -0.29300
H235        H  0.37283405  0.46015327  0.54251612     0.14900
H236        H  0.43827279  0.38437931  0.58306101     0.15400
C237        C  0.04030634  0.25398734  0.30702344    -0.11000
C238        C  0.07753526  0.25022938  0.33402214    -0.12600
C239        C  0.45192461  0.25261927  0.31284868    -0.11000
C240        C  0.41390596  0.25681623  0.34003641    -0.12600
C241        C  0.23279917  0.41859878  0.34121115    -0.11000
C242        C  0.23493127  0.45639565  0.31338040    -0.12600
C243        C  0.25417902  0.04950486  0.30385465    -0.11000
C244        C  0.25286738  0.08735392  0.33043171    -0.12600
O245        O  0.25477379  0.66972135  0.35063680    -0.84200
O246        O  0.24936783  0.66552891  0.68562562    -0.84400
O247        O  0.35211900  0.65214426  0.50016531    -0.86100
O248        O  0.19838184  0.60434356  0.49869008    -0.84800
O249        O  0.13326652  0.64842678  0.49799785    -0.84400
O250        O  0.40165818  0.71981594  0.52106521    -0.85800
O251        O  0.26606373  0.61412477  0.61051347    -0.84300
O252        O  0.26715713  0.61688024  0.42657595    -0.83800
Zr253      Zr  0.26677212  0.66071472  0.51824755     2.84300
O254        O  0.20989746  0.69255866  0.58057828    -1.05800
O255        O  0.30708955  0.71978589  0.45871100    -1.06500
C256        C  0.25982508  0.62684115  0.37184178     1.08900
C257        C  0.25667066  0.62282017  0.66540029     1.08800
C258        C  0.39360139  0.67701810  0.50307426     1.11800
C259        C  0.15392393  0.60979540  0.48968879     1.09600
H260        H  0.32791525  0.70024998  0.60322990     0.35100
O261        O  0.30564764  0.71726980  0.58063655    -1.26800
H262        H  0.19639883  0.67598549  0.43026359     0.34800
O263        O  0.21385799  0.69797413  0.45680592    -1.28400
O264        O  0.24891724  0.83185251  0.68809387    -0.84200
O265        O  0.25193056  0.83609503  0.34790254    -0.85700
O266        O  0.38698014  0.77928685  0.61604086    -0.84300
O267        O  0.11198910  0.73041218  0.60997846    -0.84300
O268        O  0.11595320  0.73133924  0.42651299    -0.84100
O269        O  0.39105544  0.77042878  0.42826371    -0.83900
O270        O  0.31242306  0.90302129  0.49644153    -0.84200
O271        O  0.16174086  0.86652238  0.50222296    -0.83700
O272        O  0.37793828  0.86005752  0.50082060    -0.84800
O273        O  0.11214566  0.79639003  0.49830696    -0.83900
O274        O  0.33099091  0.75556384  0.68844560    -0.84300
O275        O  0.33792287  0.75614606  0.35120856    -0.84000
O276        O  0.17073025  0.74826879  0.35085642    -0.83700
O277        O  0.16528105  0.74627343  0.68636420    -0.84100
O278        O  0.24305483  0.88713735  0.61277442    -0.84400
O279        O  0.24149500  0.88920670  0.42368994    -0.85700
Zr280      Zr  0.24957606  0.75041638  0.64350583     2.83100
Zr281      Zr  0.25448428  0.75342109  0.39257437     2.83500
Zr282      Zr  0.34680343  0.77740243  0.52088652     2.84100
Zr283      Zr  0.15932412  0.73160509  0.51846581     2.83400
Zr284      Zr  0.24282794  0.84666847  0.51772931     2.84200
O285        O  0.20262330  0.78837122  0.45809968    -1.06300
O286        O  0.29342560  0.81120532  0.58401792    -1.05800
C287        C  0.24606409  0.87522912  0.66787472     1.08900
C288        C  0.24665580  0.87896122  0.36849586     1.11500
C289        C  0.37475593  0.76587824  0.66918317     1.09000
C290        C  0.12166051  0.73947516  0.66495025     1.09400
C291        C  0.12701195  0.74049080  0.37200956     1.09000
C292        C  0.38110477  0.76167699  0.37336626     1.08500
C293        C  0.35701288  0.89758188  0.48713862     1.08900
C294        C  0.12165818  0.84170783  0.49155644     1.08500
H295        H  0.31336509  0.83203265  0.42881991     0.35100
O296        O  0.29521998  0.81011238  0.45537831    -1.27400
H297        H  0.17648452  0.80636353  0.60121056     0.35200
O298        O  0.19929835  0.78969304  0.57902069    -1.28800
N299        N  0.49250889  0.95642551  0.36060935    -0.34300
N300        N  0.99555479  0.47288939  0.52814898    -0.54900
N301        N  0.51284284  0.54928538  0.36293053    -0.34300
N302        N  0.48734879  0.51752502  0.47833576    -0.54900
C303        C  0.00859482  0.89921644  0.39146702     0.29200
C304        C  0.45217360  0.93674249  0.33479671     0.29200
C305        C  0.05207198  0.55309867  0.57394849     0.29200
C306        C  0.48904216  0.58655296  0.37937786     0.29200
C307        C  0.08060769  0.92974621  0.34028317     0.37900
C308        C  0.03104938  0.49486713  0.49565226     0.37900
C309        C  0.40176587  0.00332754  0.33878508     0.37900
C310        C  0.46944779  0.55949685  0.48291664     0.37900
C311        C  0.97494042  0.86168400  0.40565419    -0.19600
C312        C  0.45610641  0.88854642  0.32466671    -0.19600
C313        C  0.08281808  0.57426377  0.61682612    -0.19600
C314        C  0.50745652  0.62729691  0.34904083    -0.19600
C315        C  0.12963948  0.93884141  0.34888286    -0.20700
C316        C  0.04050827  0.46653993  0.44769237    -0.20700
C317        C  0.35884523  0.02209004  0.34953095    -0.20700
C318        C  0.45023806  0.56354636  0.53979102    -0.20700
C319        C  0.05308254  0.89138235  0.36782688    -0.16000
C320        C  0.40815359  0.95478920  0.34536204    -0.16000
C321        C  0.46348336  0.58890807  0.43296360    -0.16000
C322        C  0.06470808  0.52687461  0.52402596    -0.16000
H323        H  0.97329606  0.82610260  0.38773955     0.16900
H324        H  0.42778177  0.86228235  0.30993887     0.16900
H325        H  0.12130471  0.57305765  0.61980942     0.16900
H326        H  0.49849961  0.66349470  0.35656066     0.16900
H327        H  0.15364399  0.91456121  0.36695951     0.15200
H328        H  0.06995709  0.47256565  0.41635906     0.15200
H329        H  0.32488635  0.00248598  0.36084206     0.15200
H330        H  0.43053555  0.59138868  0.55798560     0.15200
H331        H  0.49855342  0.99154122  0.37515908     0.27000
H332        H  0.50687270  0.51445640  0.37848009     0.28400
O333        O  0.49956457  0.91409388  0.85394057    -0.84200
O334        O  0.50575666  0.92125351  0.19010138    -0.84400
O335        O  0.08612018  0.87969473  0.04164624    -0.86100
O336        O  0.44028276  0.85795824  0.04761081    -0.84800
O337        O  0.37683179  0.90372289  0.04151087    -0.84400
O338        O  0.14061809  0.94620837  0.03950111    -0.85800
O339        O  0.51917736  0.86775525  0.11580193    -0.84300
O340        O  0.50573410  0.86176930  0.93193447    -0.83800
Zr341      Zr  0.51105508  0.90871659  0.02294078     2.84300
O342        O  0.46116031  0.94848961  0.08540354    -1.05800
O343        O  0.04997495  0.95767796  0.96399815    -1.06500
C344        C  0.50197634  0.87112553  0.87615469     1.08900
C345        C  0.51250861  0.87837548  0.17037940     1.08800
C346        C  0.12852876  0.90079651  0.04723134     1.11800
C347        C  0.39575777  0.86462809  0.05215518     1.09600
H348        H  0.07112011  0.94806586  0.11212299     0.35100
O349        O  0.04973498  0.96394423  0.08690161    -1.26800
H350        H  0.43605282  0.91896473  0.93971149     0.34800
O351        O  0.45627944  0.94301552  0.96082601    -1.28400
O352        O  0.49522494  0.58540241  0.18976228    -0.84200
O353        O  0.47896840  0.57722113  0.85614840    -0.85700
O354        O  0.13989300  0.02283264  0.11208575    -0.84300
O355        O  0.36651841  0.99139791  0.11602140    -0.84300
O356        O  0.34970833  0.46752172  0.94160254    -0.84100
O357        O  0.12946616  0.51685889  0.92385699    -0.83900
O358        O  0.05939007  0.65381327  0.99785449    -0.84200
O359        O  0.37308210  0.58711902  0.02440441    -0.83700
O360        O  0.12111859  0.60568310  0.99394188    -0.84800
O361        O  0.33381168  0.51295311  0.04189403    -0.83900
O362        O  0.08640064  0.01070657  0.19004374    -0.84300
O363        O  0.07208811  0.50153355  0.85144384    -0.84000
O364        O  0.40061233  0.49102875  0.86408162    -0.83700
O365        O  0.42210331  0.00096383  0.19118342    -0.84100
O366        O  0.46828384  0.63341459  0.11611632    -0.84400
O367        O  0.45855116  0.62843301  0.92988475    -0.85700
Zr368      Zr  0.50530589  0.00474907  0.14600740     2.83100
Zr369      Zr  0.48400311  0.49496213  0.90196559     2.83500
Zr370      Zr  0.09410928  0.01548720  0.02184182     2.84100
Zr371      Zr  0.40888060  0.98519212  0.02387302     2.83400
Zr372      Zr  0.46280940  0.58707322  0.02487069     2.84200
O373        O  0.42833193  0.52383204  0.96846041    -1.06300
O374        O  0.04194809  0.56533946  0.08122666    -1.05800
C375        C  0.48387412  0.62650198  0.16894546     1.08900
C376        C  0.46958700  0.61938177  0.87570158     1.11500
C377        C  0.12971399  0.01591144  0.16728961     1.09000
C378        C  0.37816541  0.99748714  0.17061473     1.09400
C379        C  0.35803757  0.48127439  0.88700874     1.09000
C380        C  0.11647965  0.50748732  0.87013965     1.08500
C381        C  0.10290191  0.64601046  0.98596398     1.08900
C382        C  0.33437163  0.55767792  0.03149423     1.08500
H383        H  0.05380468  0.57847650  0.92764149     0.35100
O384        O  0.03585877  0.55739962  0.95541094    -1.27400
H385        H  0.41166339  0.54331407  0.11436715     0.35200
O386        O  0.43421018  0.52781644  0.09103310    -1.28800
N387        N  0.28238817  0.69938168  0.89106037    -0.34300
N388        N  0.32408784  0.67733656  0.04602053    -0.54900
N389        N  0.26578329  0.75688279  0.07442135    -0.34300
N390        N  0.20541176  0.76398034  0.96976954    -0.54900
C391        C  0.29681686  0.65498560  0.89607335     0.29200
C392        C  0.24100820  0.69486451  0.85990781     0.29200
C393        C  0.29484369  0.75116579  0.12111793     0.29200
C394        C  0.24199716  0.79585909  0.08489745     0.29200
C395        C  0.33734860  0.66891588  0.98970046     0.37900
C396        C  0.35601672  0.71233732  0.06591689     0.37900
C397        C  0.20722087  0.75848675  0.91079763     0.37900
C398        C  0.22425996  0.80869016  0.98078276     0.37900
C399        C  0.27209171  0.62522844  0.85541566    -0.19600
C400        C  0.23740082  0.65096674  0.83112707    -0.19600
C401        C  0.28168455  0.78096054  0.16653617    -0.19600
C402        C  0.24844693  0.80951763  0.14340977    -0.19600
C403        C  0.37949326  0.69564470  0.97450615    -0.20700
C404        C  0.39287705  0.72174516  0.02411723    -0.20700
C405        C  0.22820890  0.79993339  0.88379364    -0.20700
C406        C  0.23707385  0.83304210  0.92866336    -0.20700
C407        C  0.30925564  0.63846214  0.95227729    -0.16000
C408        C  0.20042830  0.71286738  0.88569783    -0.16000
C409        C  0.22900178  0.82616655  0.03830966    -0.16000
C410        C  0.34379075  0.74536754  0.10934030    -0.16000
H411        H  0.27168445  0.58666609  0.85372404     0.16900
H412        H  0.20611914  0.63495075  0.80783912     0.16900
H413        H  0.30144297  0.78858671  0.20714695     0.16900
H414        H  0.23741480  0.84162700  0.16384041     0.16900
H415        H  0.39757860  0.69710783  0.93190404     0.15200
H416        H  0.42273784  0.74930408  0.02578360     0.15200
H417        H  0.23721477  0.80505259  0.83729600     0.15200
H418        H  0.25408967  0.86925717  0.92413932     0.15200
H419        H  0.29068104  0.72622566  0.92249052     0.28400
H420        H  0.27258720  0.74437196  0.03199897     0.28400
C421        C  0.00184923  0.75442230  0.27694318    -0.00200
C422        C  0.25247351  0.00494622  0.26734984    -0.00200
C423        C  0.99694007  0.74944461  0.76875122    -0.00200
C424        C  0.24184647  0.49702976  0.77307876    -0.00200
C425        C  0.20916633  0.00638232  0.22961994    -0.11000
C426        C  0.17139639  0.01118304  0.20443013    -0.12600
C427        C  0.29813737  0.00523576  0.23297226    -0.11000
C428        C  0.33705088  0.00214565  0.20920974    -0.12600
C429        C  0.51140972  0.83692038  0.21023812    -0.11000
C430        C  0.50911708  0.79782843  0.23525413    -0.12600
C431        C  0.49054167  0.66963594  0.20568036    -0.11000
C432        C  0.99734491  0.71390494  0.23417799    -0.12600
C433        C  0.16359565  0.86847350  0.06630812    -0.14200
C434        C  0.20925840  0.87222199  0.04863360    -0.29300
H435        H  0.14844856  0.83438289  0.08521666     0.14900
H436        H  0.22389916  0.90379978  0.02405076     0.15400
C437        C  0.36341941  0.82417348  0.06911243    -0.14200
C438        C  0.37480741  0.79094519  0.10857417    -0.29300
H439        H  0.33018426  0.82025571  0.04460305     0.14900
H440        H  0.40945017  0.79367380  0.13060297     0.15400
C441        C  0.28571591  0.57318719  0.02440816    -0.14200
C442        C  0.27383243  0.60391432  0.98258354    -0.29300
H443        H  0.25630148  0.55121021  0.04575235     0.14900
H444        H  0.23589234  0.60608980  0.97381337     0.15400
C445        C  0.13248241  0.68533195  0.95619785    -0.14200
C446        C  0.16612528  0.67579445  0.91607807    -0.29300
H447        H  0.12336710  0.72171054  0.96308703     0.14900
H448        H  0.17012675  0.63822263  0.90759962     0.15400
C449        C  0.31635070  0.48797031  0.84903021    -0.11000
C450        C  0.28224878  0.49431812  0.81659057    -0.12600
C451        C  0.15650645  0.50261666  0.82954463    -0.11000
C452        C  0.19484090  0.49933608  0.80428852    -0.12600
C453        C  0.47491535  0.66172370  0.83635116    -0.11000
C454        C  0.48191217  0.70029917  0.80988730    -0.12600
C455        C  0.49964548  0.82897392  0.83708760    -0.11000
C456        C  0.49722530  0.79081573  0.80998509    -0.12600
C457        C  0.44996094  0.75079342  0.73558438    -0.11000
C458        C  0.41432621  0.75851195  0.70802370    -0.12600
C459        C  0.04143126  0.74849165  0.73041043    -0.11000
C460        C  0.07931411  0.74425538  0.70343247    -0.12600
C461        C  0.24998230  0.54197075  0.73434828    -0.11000
C462        C  0.25345389  0.58009286  0.70562555    -0.12600
C463        C  0.24631998  0.91497861  0.70902903    -0.11000
C464        C  0.24648246  0.95169535  0.73776849    -0.12600
C465        C  0.43509660  0.65617671  0.48145106    -0.14200
C466        C  0.42984603  0.62470153  0.43788424    -0.29300
H467        H  0.46913217  0.66313922  0.50454984     0.14900
H468        H  0.39687692  0.61964509  0.41227834     0.15400
C469        C  0.12365199  0.56941782  0.46712288    -0.14200
C470        C  0.11438772  0.53273005  0.50373337    -0.29300
H471        H  0.09531140  0.57862253  0.43732241     0.14900
H472        H  0.14139156  0.52489655  0.53604902     0.15400
C473        C  0.08584913  0.86617218  0.46173556    -0.14200
C474        C  0.07890628  0.85791033  0.40334341    -0.29300
H475        H  0.07195133  0.89615966  0.48404894     0.14900
H476        H  0.09925310  0.83266482  0.38028054     0.15400
C477        C  0.38333720  0.93212750  0.44724361    -0.14200
C478        C  0.37628398  0.92695418  0.38814233    -0.29300
H479        H  0.41180490  0.95738301  0.46438447     0.14900
H480        H  0.35021323  0.89926896  0.37107963     0.15400
C481        C  0.04685598  0.74945168  0.31078238    -0.11000
C482        C  0.08545512  0.74447571  0.33409981    -0.12600
C483        C  0.45996132  0.75339000  0.30774468    -0.11000
C484        C  0.42265891  0.75681638  0.33516943    -0.12600
C485        C  0.24738119  0.92046910  0.32850249    -0.11000
C486        C  0.24815494  0.95912918  0.30256534    -0.12600
C487        C  0.25047464  0.54572846  0.30931748    -0.11000
C488        C  0.25517648  0.58482608  0.33356882    -0.12600
O489        O  0.75372413  0.17464830  0.35754164    -0.84200
O490        O  0.74839238  0.16857810  0.69156534    -0.84400
O491        O  0.84737444  0.15721787  0.50336013    -0.86100
O492        O  0.69439658  0.10626273  0.54043027    -0.84800
O493        O  0.63248612  0.15292504  0.54985829    -0.84400
O494        O  0.89712210  0.22569504  0.52046722    -0.85800
O495        O  0.77125294  0.12008643  0.61628802    -0.84300
O496        O  0.76206378  0.12080911  0.43341149    -0.83800
Zr497      Zr  0.76258554  0.16488506  0.52547764     2.84300
O498        O  0.70665482  0.19784746  0.58705015    -1.05800
O499        O  0.80162705  0.22608362  0.46917220    -1.06500
C500        C  0.75805413  0.13136934  0.37818620     1.08900
C501        C  0.76020259  0.12743592  0.67078780     1.08800
C502        C  0.88874242  0.18241037  0.50325968     1.11800
C503        C  0.65040086  0.11258102  0.55173493     1.09600
H504        H  0.82265954  0.20435753  0.61103373     0.35100
O505        O  0.80046415  0.22168436  0.58883479    -1.26800
H506        H  0.68875944  0.17417967  0.44055861     0.34800
O507        O  0.70706780  0.19850782  0.46350026    -1.28400
O508        O  0.73993494  0.33561209  0.69620838    -0.84200
O509        O  0.74633333  0.33841650  0.35532159    -0.85700
O510        O  0.88126674  0.27477226  0.62599267    -0.84300
O511        O  0.60621766  0.23831272  0.61480248    -0.84300
O512        O  0.61089049  0.22669851  0.43352860    -0.84100
O513        O  0.88649689  0.28682895  0.43686941    -0.83900
O514        O  0.79662576  0.41064865  0.54879925    -0.84200
O515        O  0.65272000  0.36872878  0.51090667    -0.83700
O516        O  0.86081594  0.36710765  0.56343456    -0.84800
O517        O  0.60485864  0.29756913  0.50679822    -0.83900
O518        O  0.82466272  0.25933898  0.70006610    -0.84300
O519        O  0.83331661  0.26174367  0.36283943    -0.84000
O520        O  0.66531878  0.25029130  0.35970788    -0.83700
O521        O  0.65883392  0.24740191  0.69298080    -0.84100
O522        O  0.72506713  0.38886703  0.62152268    -0.84400
O523        O  0.73833670  0.39256503  0.43060031    -0.85700
Zr524      Zr  0.74389373  0.25382660  0.65247584     2.83100
Zr525      Zr  0.74928867  0.25734466  0.40199094     2.83500
Zr526      Zr  0.84145548  0.28348904  0.53136705     2.84100
Zr527      Zr  0.65463364  0.23506279  0.52614404     2.83400
Zr528      Zr  0.73391048  0.35007535  0.52614081     2.84200
O529        O  0.69573557  0.29206514  0.46507667    -1.06300
O530        O  0.78444974  0.31376929  0.59134393    -1.05800
C531        C  0.73171710  0.37798053  0.67638365     1.08900
C532        C  0.74250166  0.38160347  0.37525756     1.11500
C533        C  0.86872087  0.26515598  0.68017445     1.09000
C534        C  0.61558307  0.24382621  0.67024149     1.09400
C535        C  0.62160650  0.23882347  0.37952867     1.09000
C536        C  0.87653114  0.27256181  0.38324905     1.08500
C537        C  0.83825069  0.40515120  0.56926441     1.08900
C538        C  0.61340354  0.34290619  0.49969068     1.08500
H539        H  0.80920411  0.34167075  0.44193593     0.35100
O540        O  0.79035863  0.31724298  0.46464605    -1.27400
H541        H  0.66954964  0.30900913  0.60989344     0.35200
O542        O  0.69275290  0.29266089  0.58794826    -1.28800
N543        N  0.96192928  0.43941571  0.63825649    -0.34300
N544        N  0.52208930  0.98835242  0.47374656    -0.54900
N545        N  0.00463216  0.05205495  0.35851441    -0.34300
N546        N  0.97791394  0.01953685  0.47226719    -0.54900
C547        C  0.50492736  0.39763105  0.38939790     0.29200
C548        C  0.93985371  0.42961265  0.69046496     0.29200
C549        C  0.52217633  0.08793069  0.48564851     0.29200
C550        C  0.97973303  0.08901223  0.37427424     0.29200
C551        C  0.57979973  0.42412865  0.34159310     0.37900
C552        C  0.52790145  0.00831929  0.52740761     0.37900
C553        C  0.90589313  0.50351764  0.71343106     0.37900
C554        C  0.95703866  0.06016391  0.47603858     0.37900
C555        C  0.46952779  0.36146146  0.40250491    -0.19600
C556        C  0.94260494  0.38164556  0.70412168    -0.19600
C557        C  0.53756982  0.13603266  0.47776437    -0.19600
C558        C  0.99804327  0.12991693  0.34422159    -0.19600
C559        C  0.62868031  0.43037379  0.35220161    -0.20700
C560        C  0.54697014  0.97689996  0.56622719    -0.20700
C561        C  0.86903901  0.53298427  0.71485645    -0.20700
C562        C  0.93768646  0.06394087  0.53273802    -0.20700
C563        C  0.54966988  0.38744454  0.36907839    -0.16000
C564        C  0.89978778  0.45380652  0.70369889    -0.16000
C565        C  0.95286949  0.09115467  0.42719264    -0.16000
C566        C  0.53422538  0.05812494  0.53306192    -0.16000
H567        H  0.46764758  0.32576771  0.38532328     0.16900
H568        H  0.92388842  0.36172069  0.73988697     0.16900
H569        H  0.55678139  0.15994117  0.50846963     0.16900
H570        H  0.98845226  0.16594649  0.35131471     0.16900
H571        H  0.65031198  0.40441891  0.37129247     0.15200
H572        H  0.55851112  0.98386148  0.61141273     0.15200
H573        H  0.83110503  0.52172826  0.71450244     0.15200
H574        H  0.91600669  0.09057513  0.55007929     0.15200
H575        H  0.96030504  0.47221083  0.61723282     0.27000
H576        H  0.99941152  0.01698572  0.37384865     0.28400
O577        O  0.99167104  0.41666621  0.85637804    -0.84200
O578        O  0.99905590  0.42743104  0.19357531    -0.84400
O579        O  0.59417009  0.39943787  0.99838978    -0.86100
O580        O  0.92838509  0.36133909  0.04674037    -0.84800
O581        O  0.86945040  0.41165596  0.05692277    -0.84400
O582        O  0.63713118  0.47348346  0.99830786    -0.85800
O583        O  0.00706632  0.37242183  0.11942372    -0.84300
O584        O  0.99864600  0.36583701  0.93559063    -0.83800
Zr585      Zr  0.99997912  0.41281708  0.02621266     2.84300
O586        O  0.95262322  0.45428002  0.08911316    -1.05800
O587        O  0.54318363  0.46991029  0.96482735    -1.06500
C588        C  0.99578618  0.37429760  0.87956975     1.08900
C589        C  0.00319765  0.38392375  0.17411315     1.08800
C590        C  0.63183683  0.42832102  0.98778103     1.11800
C591        C  0.88531554  0.37009464  0.05882995     1.09600
H592        H  0.57548329  0.45450222  0.10594492     0.35100
O593        O  0.55025399  0.46891247  0.08545051    -1.26800
H594        H  0.92472952  0.42289636  0.94327879     0.34800
O595        O  0.94546862  0.44696115  0.96371304    -1.28400
O596        O  0.99789593  0.09041024  0.18917520    -0.84200
O597        O  0.99137057  0.07700552  0.85541395    -0.85700
O598        O  0.63065316  0.53451035  0.11298894    -0.84300
O599        O  0.85984020  0.49562524  0.12004292    -0.84300
O600        O  0.85912533  0.97431969  0.93889045    -0.84100
O601        O  0.63963996  0.01768238  0.92394851    -0.83900
O602        O  0.56831848  0.14702008  0.99316971    -0.84200
O603        O  0.90302629  0.10026687  0.99995542    -0.83700
O604        O  0.63187260  0.10106637  0.99784090    -0.84800
O605        O  0.85156502  0.03549561  0.02765569    -0.83900
O606        O  0.58016011  0.51034349  0.19055567    -0.84300
O607        O  0.58287326  0.00165803  0.85089070    -0.84000
O608        O  0.91227426  0.99113159  0.86153893    -0.83700
O609        O  0.91647496  0.50594308  0.19400980    -0.84100
O610        O  0.98502716  0.13996132  0.11030430    -0.84400
O611        O  0.98094151  0.13219429  0.92892362    -0.85700
Zr612      Zr  0.99891636  0.51026537  0.14750645     2.83100
Zr613      Zr  0.99591303  0.99351123  0.90078832     2.83500
Zr614      Zr  0.58152891  0.53110050  0.02262371     2.84100
Zr615      Zr  0.90085868  0.49119507  0.02764146     2.83400
Zr616      Zr  0.98866753  0.09132397  0.02072647     2.84200
O617        O  0.94668874  0.03119587  0.96639504    -1.06300
O618        O  0.55000731  0.06027902  0.08163564    -1.05800
C619        C  0.99060770  0.13225933  0.16630325     1.08900
C620        C  0.98530478  0.12042470  0.87449303     1.11500
C621        C  0.62282511  0.52145769  0.16760985     1.09000
C622        C  0.87234946  0.50140091  0.17425111     1.09400
C623        C  0.86898018  0.98433887  0.88365740     1.09000
C624        C  0.62707328  0.00877908  0.86997186     1.08500
C625        C  0.61223451  0.13923745  0.98346032     1.08900
C626        C  0.86071766  0.07704768  0.00548948     1.08500
H627        H  0.56277786  0.07427676  0.92848835     0.35100
O628        O  0.54491376  0.05331118  0.95633009    -1.27400
H629        H  0.92547309  0.05709414  0.10886973     0.35200
O630        O  0.94738763  0.03898123  0.08713106    -1.28800
N631        N  0.73751588  0.20307561  0.86421510    -0.34300
N632        N  0.75794075  0.23336584  0.97998919    -0.54900
N633        N  0.73137729  0.31805231  0.93550191    -0.34300
N634        N  0.68155913  0.28412297  0.82376756    -0.54900
C635        C  0.76253926  0.16649812  0.88105068     0.29200
C636        C  0.70006674  0.18449287  0.83185868     0.29200
C637        C  0.76638655  0.33190324  0.97407775     0.29200
C638        C  0.73279667  0.35169364  0.89242991     0.29200
C639        C  0.78002128  0.19350175  0.98422412     0.37900
C640        C  0.76658472  0.25807358  0.03011723     0.37900
C641        C  0.64628357  0.24860863  0.83208198     0.37900
C642        C  0.66249908  0.32492365  0.83901656     0.37900
C643        C  0.74576077  0.12544141  0.85084252    -0.19600
C644        C  0.70527949  0.13655988  0.82110817    -0.19600
C645        C  0.79196421  0.37358440  0.95349255    -0.19600
C646        C  0.77057704  0.38575300  0.90185132    -0.19600
C647        C  0.79835500  0.18989256  0.04136248    -0.20700
C648        C  0.78783131  0.23015536  0.07130516    -0.20700
C649        C  0.60373192  0.26716412  0.84656353    -0.20700
C650        C  0.61358472  0.31587786  0.84883008    -0.20700
C651        C  0.78824398  0.16483437  0.93451638    -0.16000
C652        C  0.65478120  0.20067739  0.84064238    -0.16000
C653        C  0.69027671  0.36269124  0.86665386    -0.16000
C654        C  0.77340764  0.30818199  0.02813240    -0.16000
H655        H  0.75564345  0.08952808  0.85864367     0.16900
H656        H  0.67847391  0.11071609  0.80207263     0.16900
H657        H  0.82118980  0.39470255  0.97394077     0.16900
H658        H  0.77754275  0.41881931  0.87813577     0.16900
H659        H  0.82039810  0.16378682  0.05932445     0.15200
H660        H  0.80187331  0.24101261  0.11436177     0.15200
H661        H  0.57071691  0.24734175  0.86122962     0.15200
H662        H  0.58982121  0.34004312  0.86750488     0.15200
H663        H  0.74148491  0.23796758  0.87996870     0.28400
H664        H  0.70244543  0.29238401  0.94409863     0.28400
C665        C  0.49813062  0.25118509  0.27714964    -0.00200
C666        C  0.74661931  0.50484738  0.26891885    -0.00200
C667        C  0.49088151  0.24874247  0.77156172    -0.00200
C668        C  0.75143859  0.99932533  0.77103984    -0.00200
C669        C  0.70297359  0.50894098  0.23061134    -0.11000
C670        C  0.66589228  0.51560148  0.20370061    -0.12600
C671        C  0.79216904  0.50512441  0.23547369    -0.11000
C672        C  0.83170581  0.50389972  0.21333878    -0.12600
C673        C  0.00233559  0.34267811  0.21433607    -0.11000
C674        C  0.00018629  0.30323192  0.23855168    -0.12600
C675        C  0.98904800  0.17494152  0.20498200    -0.11000
C676        C  0.49444998  0.20792120  0.23739095    -0.12600
C677        C  0.67008009  0.40829800  0.95609624    -0.14200
C678        C  0.66507668  0.40012768  0.89723210    -0.29300
H679        H  0.69675990  0.39303022  0.98288192     0.14900
H680        H  0.63531257  0.41406413  0.87411413     0.15400
C681        C  0.85079560  0.32874148  0.06977496    -0.14200
C682        C  0.80385848  0.33452620  0.07216566    -0.29300
H683        H  0.86249522  0.29461862  0.05581127     0.14900
H684        H  0.79253161  0.36913918  0.08487524     0.15400
C685        C  0.81922727  0.09837606  0.98384211    -0.14200
C686        C  0.82363377  0.13026855  0.94008642    -0.29300
H687        H  0.78506416  0.09058803  0.00695632     0.14900
H688        H  0.85657903  0.13616960  0.91416774     0.15400
C689        C  0.63924479  0.17227198  0.94292640    -0.14200
C690        C  0.62467269  0.17380882  0.88588718    -0.29300
H691        H  0.67372842  0.18951513  0.95644361     0.14900
H692        H  0.59116461  0.15458349  0.87198576     0.15400
C693        C  0.82791045  0.99005277  0.84415989    -0.11000
C694        C  0.79306249  0.99563156  0.81258862    -0.12600
C695        C  0.66731133  0.00499598  0.82958853    -0.11000
C696        C  0.70538266  0.00144502  0.80402993    -0.12600
C697        C  0.98489486  0.16172339  0.83456290    -0.11000
C698        C  0.98611932  0.20175556  0.81195207    -0.12600
C699        C  0.99696864  0.33159936  0.84171843    -0.11000
C700        C  0.99660374  0.29292906  0.81585178    -0.12600
C701        C  0.94570144  0.25165650  0.74460015    -0.11000
C702        C  0.90832746  0.25767122  0.71938448    -0.12600
C703        C  0.53474777  0.25095172  0.73299245    -0.11000
C704        C  0.57316038  0.24803752  0.70748778    -0.12600
C705        C  0.75858523  0.04533002  0.73510892    -0.11000
C706        C  0.76010633  0.08445704  0.70931471    -0.12600
C707        C  0.73134537  0.41807142  0.71746718    -0.11000
C708        C  0.73285799  0.45531761  0.74569063    -0.12600
C709        C  0.92934333  0.16037298  0.47949838    -0.14200
C710        C  0.92223936  0.13004184  0.43433887    -0.29300
H711        H  0.96324266  0.16409129  0.50328204     0.14900
H712        H  0.88926998  0.12826671  0.40868928     0.15400
C713        C  0.61628491  0.07100458  0.56324341    -0.14200
C714        C  0.57028510  0.07825627  0.57552848    -0.29300
H715        H  0.62488131  0.03801261  0.54225687     0.14900
H716        H  0.56237327  0.11128950  0.59705696     0.15400
C717        C  0.57820785  0.36585293  0.46723669    -0.14200
C718        C  0.57270378  0.35488354  0.40919571    -0.29300
H719        H  0.56522227  0.39736484  0.48675240     0.14900
H720        H  0.59314751  0.32814748  0.38947442     0.15400
C721        C  0.85903200  0.44279009  0.60850902    -0.14200
C722        C  0.85804948  0.43466920  0.66786846    -0.29300
H723        H  0.88199019  0.47229349  0.58912176     0.14900
H724        H  0.83654343  0.40333236  0.68536975     0.15400
C725        C  0.54210382  0.24710271  0.31447610    -0.11000
C726        C  0.57995489  0.24236078  0.34050381    -0.12600
C727        C  0.95258998  0.25943439  0.31295413    -0.11000
C728        C  0.91756747  0.26603321  0.34393214    -0.12600
C729        C  0.74288249  0.42202468  0.33350630    -0.11000
C730        C  0.74270623  0.45915585  0.30445356    -0.12600
C731        C  0.75536074  0.05068756  0.31328947    -0.11000
C732        C  0.75717768  0.08964824  0.33858725    -0.12600
O733        O  0.75312070  0.66891284  0.35436120    -0.84200
O734        O  0.74252079  0.66366876  0.69312324    -0.84400
O735        O  0.83515049  0.62674983  0.53795007    -0.86100
O736        O  0.68597740  0.59865141  0.49366048    -0.84800
O737        O  0.62078328  0.64199956  0.50050468    -0.84400
O738        O  0.88666357  0.69490280  0.54731112    -0.85800
O739        O  0.74774840  0.60939239  0.61708578    -0.84300
O740        O  0.76502669  0.61411317  0.42846976    -0.83800
Zr741      Zr  0.75518165  0.65203167  0.52296094     2.84300
O742        O  0.70117218  0.68627976  0.58708296    -1.05800
O743        O  0.80031031  0.70846130  0.46305546    -1.06500
C744        C  0.75905994  0.62591669  0.37397705     1.08900
C745        C  0.74467171  0.62054822  0.67232237     1.08800
C746        C  0.87617763  0.64921145  0.55077383     1.11800
C747        C  0.64165274  0.60506145  0.48443702     1.09600
H748        H  0.81372798  0.69023680  0.61310802     0.35100
O749        O  0.79393819  0.70736388  0.58720057    -1.26800
H750        H  0.68991517  0.67226941  0.43202113     0.34800
O751        O  0.70721093  0.69323725  0.45989687    -1.28400
O752        O  0.74457416  0.83036474  0.69035251    -0.84200
O753        O  0.74887245  0.83498582  0.35735023    -0.85700
O754        O  0.88211014  0.76309990  0.62056810    -0.84300
O755        O  0.60582315  0.72192651  0.61552110    -0.84300
O756        O  0.61256950  0.72875709  0.42714925    -0.84100
O757        O  0.88714991  0.76219244  0.43619343    -0.83900
O758        O  0.80623138  0.89259302  0.54099267    -0.84200
O759        O  0.65302577  0.85057774  0.49652644    -0.83700
O760        O  0.86636866  0.84370271  0.55277838    -0.84800
O761        O  0.60018655  0.78440697  0.51412642    -0.83900
O762        O  0.82548888  0.75113108  0.69520701    -0.84300
O763        O  0.83473859  0.75356676  0.35775413    -0.84000
O764        O  0.66939813  0.74614821  0.35375878    -0.83700
O765        O  0.65856628  0.74002882  0.69204258    -0.84100
O766        O  0.72815170  0.88240849  0.61538025    -0.84400
O767        O  0.73959027  0.88692865  0.43435330    -0.85700
Zr768      Zr  0.74208006  0.74567899  0.64969530     2.83100
Zr769      Zr  0.75143434  0.75048706  0.39920874     2.83500
Zr770      Zr  0.84037405  0.76213604  0.52805242     2.84100
Zr771      Zr  0.65195787  0.72403314  0.52273067     2.83400
Zr772      Zr  0.73556861  0.83875227  0.52400091     2.84200
O773        O  0.69633991  0.78171285  0.46330594    -1.06300
O774        O  0.78593337  0.79967062  0.58601353    -1.05800
C775        C  0.73772389  0.87309278  0.66978077     1.08900
C776        C  0.74421420  0.87783067  0.37886295     1.11500
C777        C  0.86986910  0.75684490  0.67512679     1.09000
C778        C  0.61533522  0.73165408  0.67044531     1.09400
C779        C  0.62516863  0.73875633  0.37308799     1.09000
C780        C  0.87771991  0.75680562  0.38047300     1.08500
C781        C  0.84958647  0.88481114  0.55306743     1.08900
C782        C  0.61095319  0.82684925  0.49528569     1.08500
H783        H  0.81345131  0.82926862  0.44326207     0.35100
O784        O  0.79328527  0.80496405  0.46459240    -1.27400
H785        H  0.66774623  0.79983167  0.60629531     0.35200
O786        O  0.69078853  0.78298594  0.58470907    -1.28800
N787        N  0.00567881  0.93499300  0.43070399    -0.34300
N788        N  0.56369420  0.46614777  0.32519817    -0.54900
N789        N  0.00701168  0.56329214  0.58509686    -0.34300
N790        N  0.94847357  0.52978387  0.70569731    -0.54900
C791        C  0.51908695  0.92038210  0.37415257     0.29200
C792        C  0.97240358  0.91965607  0.47148262     0.29200
C793        C  0.55150497  0.56693471  0.33150716     0.29200
C794        C  0.00826373  0.58981496  0.63456638     0.29200
C795        C  0.54251737  0.94746038  0.47503339     0.37900
C796        C  0.60074935  0.49970480  0.33411436     0.37900
C797        C  0.96885815  0.99536142  0.52307071     0.37900
C798        C  0.93818812  0.57525316  0.69569781     0.37900
C799        C  0.49937880  0.87841562  0.34805785    -0.19600
C800        C  0.95210480  0.87433493  0.45621604    -0.19600
C801        C  0.54813358  0.61516131  0.32025206    -0.19600
C802        C  0.05441115  0.59676911  0.65645690    -0.19600
C803        C  0.55840677  0.93915677  0.53239586    -0.20700
C804        C  0.64131243  0.47864951  0.35021967    -0.20700
C805        C  0.94741904  0.02372349  0.56349974    -0.20700
C806        C  0.88962562  0.57894460  0.70568050    -0.20700
C807        C  0.54907494  0.92007796  0.42385285    -0.16000
C808        C  0.96273360  0.94523732  0.52330765    -0.16000
C809        C  0.96730757  0.60674716  0.65860772    -0.16000
C810        C  0.59555110  0.54854381  0.34078214    -0.16000
H811        H  0.51008240  0.84273494  0.35523265     0.16900
H812        H  0.92688361  0.85071451  0.48084697     0.16900
H813        H  0.57603164  0.64031373  0.30155554     0.16900
H814        H  0.06625379  0.61666046  0.69563109     0.16900
H815        H  0.57829533  0.91075581  0.54882173     0.15200
H816        H  0.67453634  0.49670480  0.36637849     0.15200
H817        H  0.93312197  0.01335667  0.60689485     0.15200
H818        H  0.87005599  0.60979914  0.69716942     0.15200
H819        H  0.03238842  0.96325654  0.43693851     0.27000
H820        H  0.97685118  0.55387474  0.55914907     0.28400
O821        O  0.99689859  0.91100689  0.85900437    -0.84200
O822        O  0.00412991  0.92523496  0.20030888    -0.84400
O823        O  0.59001691  0.88359641  0.00581208    -0.86100
O824        O  0.94017406  0.84749564  0.05039399    -0.84800
O825        O  0.88202409  0.89743729  0.06581561    -0.84400
O826        O  0.64246829  0.95122336  0.99574008    -0.85800
O827        O  0.01066717  0.86869164  0.12727876    -0.84300
O828        O  0.00752070  0.85947877  0.93675334    -0.83800
Zr829      Zr  0.00752091  0.90466292  0.02990741     2.84300
O830        O  0.95934763  0.94517825  0.09383262    -1.05800
O831        O  0.55268074  0.96350143  0.96013083    -1.06500
C832        C  0.00247611  0.86870985  0.88095592     1.08900
C833        C  0.00784507  0.88153792  0.18177517     1.08800
C834        C  0.63090396  0.90586053  0.99204658     1.11800
C835        C  0.89786130  0.85592408  0.06630394     1.09600
H836        H  0.57813238  0.94703598  0.10513314     0.35100
O837        O  0.55609815  0.96429322  0.08248261    -1.26800
H838        H  0.93284086  0.91296849  0.94579762     0.34800
O839        O  0.95270962  0.93747843  0.96666355    -1.28400
O840        O  0.99982879  0.59408516  0.18659043    -0.84200
O841        O  0.98856219  0.58093176  0.84861878    -0.85700
O842        O  0.64302639  0.01912326  0.11219191    -0.84300
O843        O  0.86328027  0.98337494  0.12477580    -0.84300
O844        O  0.85263301  0.48799571  0.93788072    -0.84100
O845        O  0.62280780  0.53132782  0.92840848    -0.83900
O846        O  0.52317699  0.65103514  0.99961192    -0.84200
O847        O  0.90760538  0.62552823  0.01241981    -0.83700
O848        O  0.59481174  0.61670088  0.99809246    -0.84800
O849        O  0.85511290  0.55828398  0.02352336    -0.83900
O850        O  0.58818642  0.01030889  0.18914462    -0.84300
O851        O  0.56770367  0.50273793  0.85820979    -0.84000
O852        O  0.90492784  0.49828891  0.85875851    -0.83700
O853        O  0.91955787  0.00051722  0.19774749    -0.84100
O854        O  0.98985902  0.64613058  0.10902499    -0.84400
O855        O  0.98287021  0.63744158  0.92183501    -0.85700
Zr856      Zr  0.00185330  0.00573477  0.15105980     2.83100
Zr857      Zr  0.98959388  0.50034418  0.89707929     2.83500
Zr858      Zr  0.59882422  0.01910650  0.01854182     2.84100
Zr859      Zr  0.90560972  0.97755447  0.03195870     2.83400
Zr860      Zr  0.98830094  0.60030570  0.01770089     2.84200
O861        O  0.94280937  0.54314627  0.96127883    -1.06300
O862        O  0.52559130  0.56254721  0.08514039    -1.05800
C863        C  0.99516537  0.63658408  0.16447394     1.08900
C864        C  0.98557610  0.62459225  0.86740306     1.11500
C865        C  0.63193521  0.01416349  0.16781075     1.09000
C866        C  0.87541303  0.99329804  0.17856282     1.09400
C867        C  0.86183462  0.49440464  0.88215024     1.09000
C868        C  0.61143678  0.51559094  0.87636233     1.08500
C869        C  0.56769696  0.65043372  0.98585697     1.08900
C870        C  0.86511260  0.60340670  0.01574347     1.08500
H871        H  0.53423141  0.57720005  0.93577760     0.35100
O872        O  0.51951695  0.55446758  0.96374803    -1.27400
H873        H  0.92580527  0.56678382  0.10758596     0.35200
O874        O  0.94644824  0.54821604  0.08447399    -1.28800
N875        N  0.69361614  0.67951739  0.93082701    -0.34300
N876        N  0.73927749  0.72478571  0.02498868    -0.54900
N877        N  0.74324625  0.80414937  0.95010327    -0.34300
N878        N  0.68522528  0.76759319  0.84379980    -0.54900
C879        C  0.72041621  0.64478870  0.94786422     0.29200
C880        C  0.67931489  0.67089874  0.87507130     0.29200
C881        C  0.77811838  0.81837746  0.98906313     0.29200
C882        C  0.74647865  0.83554186  0.90432362     0.29200
C883        C  0.73966559  0.68006936  0.04525497     0.37900
C884        C  0.76107828  0.75428302  0.06447222     0.37900
C885        C  0.64304245  0.73997395  0.84228074     0.37900
C886        C  0.67372375  0.81296176  0.85081697     0.37900
C887        C  0.72343913  0.61268093  0.90149861    -0.19600
C888        C  0.69586767  0.62869554  0.85577059    -0.19600
C889        C  0.80588264  0.85758447  0.96488293    -0.19600
C890        C  0.78582398  0.86826127  0.91170695    -0.19600
C891        C  0.75886941  0.68105148  0.10203635    -0.20700
C892        C  0.77214122  0.72867522  0.11463011    -0.20700
C893        C  0.60529747  0.76803694  0.84399398    -0.20700
C894        C  0.62449151  0.81468220  0.84722167    -0.20700
C895        C  0.74060148  0.64222495  0.00480073    -0.16000
C896        C  0.63879742  0.69070767  0.85482124    -0.16000
C897        C  0.70481636  0.84851110  0.87793854    -0.16000
C898        C  0.78208176  0.79952319  0.04754199    -0.16000
H899        H  0.74109114  0.57993782  0.90189881     0.16900
H900        H  0.68644475  0.61015839  0.81490619     0.16900
H901        H  0.83509944  0.87925491  0.98419653     0.16900
H902        H  0.79491385  0.90023353  0.88550488     0.16900
H903        H  0.76820632  0.65064852  0.12788931     0.15200
H904        H  0.79332494  0.74182297  0.15226177     0.15200
H905        H  0.56845444  0.75528546  0.85230205     0.15200
H906        H  0.60446292  0.84506910  0.85623560     0.15200
H907        H  0.67967505  0.70490545  0.95767969     0.28400
H908        H  0.71251157  0.78129925  0.95919602     0.28400
C909        C  0.50364158  0.75181919  0.26982341    -0.00200
C910        C  0.75136610  0.00509643  0.27766169    -0.00200
C911        C  0.49193772  0.74556894  0.77365145    -0.00200
C912        C  0.73697307  0.50048100  0.78098545    -0.00200
C913        C  0.70859103  0.00706237  0.23801580    -0.11000
C914        C  0.67255178  0.01083789  0.20817728    -0.12600
C915        C  0.79692711  0.00316507  0.24343548    -0.11000
C916        C  0.83494103  0.99876340  0.21806626    -0.12600
C917        C  0.00784391  0.84161525  0.22325840    -0.11000
C918        C  0.00626766  0.80233727  0.24725864    -0.12600
C919        C  0.99605950  0.67776586  0.20394294    -0.11000
C920        C  0.49644488  0.70795001  0.23192466    -0.12600
C921        C  0.66544661  0.87690656  0.96575040    -0.14200
C922        C  0.68259074  0.88652751  0.91049653    -0.29300
H923        H  0.66852532  0.84223647  0.98615139     0.14900
H924        H  0.67421572  0.91841230  0.88684907     0.15400
C925        C  0.86284932  0.81536838  0.07989494    -0.14200
C926        C  0.81697376  0.82415832  0.08735998    -0.29300
H927        H  0.87111606  0.78032056  0.06445045     0.14900
H928        H  0.80815976  0.85916736  0.10217547     0.15400
C929        C  0.82454949  0.63158778  0.00975774    -0.14200
C930        C  0.77902211  0.61117543  0.01228558    -0.29300
H931        H  0.83185964  0.67007858  0.00262911     0.14900
H932        H  0.77018709  0.57270226  0.01668171     0.15400
C933        C  0.58664553  0.68586632  0.94240394    -0.14200
C934        C  0.59549371  0.67011045  0.88701055    -0.29300
H935        H  0.60154783  0.72081321  0.95781355     0.14900
H936        H  0.58170319  0.63398255  0.87443411     0.15400
C937        C  0.81952840  0.49856225  0.84461154    -0.11000
C938        C  0.78128561  0.50069585  0.81850244    -0.12600
C939        C  0.65279646  0.50914749  0.83846186    -0.11000
C940        C  0.69142416  0.50349064  0.81507680    -0.12600
C941        C  0.98749956  0.66440245  0.82617846    -0.11000
C942        C  0.99140649  0.70318317  0.80132228    -0.12600
C943        C  0.00279955  0.82760678  0.84075219    -0.11000
C944        C  0.00212765  0.79164751  0.80978369    -0.12600
C945        C  0.95099117  0.75254956  0.73584843    -0.11000
C946        C  0.91124095  0.75468418  0.71395777    -0.12600
C947        C  0.53646854  0.74092385  0.73711312    -0.11000
C948        C  0.57339928  0.73577954  0.70906136    -0.12600
C949        C  0.74188101  0.54359109  0.74228801    -0.11000
C950        C  0.74349763  0.58030359  0.71306133    -0.12600
C951        C  0.74235456  0.91548083  0.70855832    -0.11000
C952        C  0.74666486  0.95428317  0.73433867    -0.12600
C953        C  0.91145074  0.62042497  0.57767629    -0.14200
C954        C  0.94272929  0.63888735  0.61896277    -0.29300
H955        H  0.90517315  0.58175320  0.57288193     0.14900
H956        H  0.94721273  0.67716144  0.62756022     0.15400
C957        C  0.61522908  0.57212507  0.44346918    -0.14200
C958        C  0.62680954  0.57476230  0.38507285    -0.29300
H959        H  0.58278782  0.55112913  0.45859722     0.14900
H960        H  0.65732515  0.59836111  0.36937940     0.15400
C961        C  0.57207922  0.84889914  0.46846469    -0.14200
C962        C  0.58170002  0.88322602  0.42833320    -0.29300
H963        H  0.53599208  0.84119446  0.48661230     0.14900
H964        H  0.61724481  0.89037507  0.40859579     0.15400
C965        C  0.88381296  0.92642873  0.56235204    -0.14200
C966        C  0.93063351  0.92038605  0.56747986    -0.29300
H967        H  0.87275622  0.96002297  0.54533842     0.14900
H968        H  0.94139333  0.88637863  0.58362990     0.15400
C969        C  0.54819536  0.74810620  0.30532973    -0.11000
C970        C  0.58518234  0.74366538  0.33272916    -0.12600
C971        C  0.95732653  0.75175335  0.31446949    -0.11000
C972        C  0.91950598  0.75330208  0.34179446    -0.12600
C973        C  0.74454549  0.92045003  0.33987435    -0.11000
C974        C  0.74563333  0.95950653  0.31415914    -0.12600
C975        C  0.75182876  0.54820706  0.30652738    -0.11000
C976        C  0.75630132  0.58579790  0.33354697    -0.12600
loop_ 
_geom_bond_atom_site_label_1 
_geom_bond_atom_site_label_2 
_geom_bond_distance 
_geom_bond_site_symmetry_2 
_ccdc_geom_bond_type 
O1          Zr37   2.522       .  S
O1           C12   1.309       .  A
O2          Zr36   2.503       .  S
O2           C13   1.305       .  A
O3           Zr9   2.410       .  S
O3           C14   1.284       .  A
O4           Zr9   2.422       .  S
O4           C15   1.287       .  A
O5          Zr39   2.432       .  S
O5           C15   1.288       .  A
O6          Zr38   2.374       .  S
O6           C14   1.280       .  A
O7           Zr9   2.435       .  S
O7           C13   1.290       .  A
O8           Zr9   2.420       .  S
O8           C12   1.287       .  A
Zr9          O10   2.347       .  S
Zr9          O11   2.334       .  S
Zr9          O19   2.339       .  S
Zr9          O17   2.336       .  S
O10         Zr36   2.394       .  S
O10         Zr39   2.346       .  S
O11         Zr37   2.341       .  S
O11         Zr38   2.314       .  S
C12         C244   1.461       .  S
C13         C218   1.459       .  S
C14         C221   1.431       .  S
C15         C225   1.457       .  S
H16          O17   0.965       .  S
O17         Zr36   2.364       .  S
O17         Zr38   2.341       .  S
H18          O19   0.963       .  S
O19         Zr37   2.353       .  S
O19         Zr39   2.329       .  S
O20         Zr36   2.541       .  S
O20          C43   1.313       .  A
O21         Zr37   2.509       .  S
O21          C44   1.306       .  A
O22         Zr38   2.412       .  S
O22          C45   1.285       .  A
O23         Zr39   2.436       .  S
O23          C46   1.290       .  A
O24         Zr39   2.424       .  S
O24          C47   1.288       .  A
O25         Zr38   2.462       .  S
O25          C48   1.295       .  A
O26         Zr40   2.398       .  S
O26          C49   1.281       .  A
O27         Zr40   2.417       .  S
O27          C50   1.286       .  A
O28         Zr38   2.405       .  S
O28          C49   1.285       .  A
O29         Zr39   2.387       .  S
O29          C50   1.281       .  A
O30         Zr36   2.526       .  S
O30          C45   1.310       .  A
O31         Zr37   2.530       .  S
O31          C48   1.309       .  A
O32         Zr37   2.509       .  S
O32          C47   1.306       .  A
O33         Zr36   2.510       .  S
O33          C46   1.307       .  A
O34         Zr40   2.407       .  S
O34          C43   1.284       .  A
O35         Zr40   2.426       .  S
O35          C44   1.287       .  A
Zr36         O42   2.348       .  S
Zr36         O54   2.352       .  S
Zr37         O41   2.363       .  S
Zr37         O52   2.367       .  S
Zr38         O42   2.320       .  S
Zr38         O52   2.342       .  S
Zr39         O41   2.350       .  S
Zr39         O54   2.339       .  S
Zr40         O41   2.322       .  S
Zr40         O42   2.336       .  S
Zr40         O54   2.328       .  S
Zr40         O52   2.353       .  S
C43         C219   1.468       .  S
C44         C241   1.463       .  S
C45         C214   1.460       .  S
C46         C216   1.461       .  S
C47         C238   1.457       .  S
C48         C240   1.491       .  S
C49         C233   1.456       .  S
C50         C229   1.443       .  S
H51          O52   0.966       .  S
H53          O54   0.964       .  S
N55          C60   1.344       .  A
N55         C547   1.344       .  A
N55          H87   1.045       .  S
N56          C64   1.344   1_565  A
N56         C307   1.349       .  A
N57          C62   1.346       .  A
N57         C549   1.346       .  A
N57          H88   1.044       .  S
N58          C66   1.348       .  A
N58         C309   1.348       .  A
C59         N543   1.348       .  A
C59          C67   1.384       .  A
C59          C75   1.417       .  A
C60          C76   1.412       .  A
C60          C68   1.383       .  A
C61         N545   1.344       .  A
C61          C69   1.385       .  A
C61          C78   1.399       .  A
C62          C77   1.389       .  A
C62          C70   1.386       .  A
C63         N300   1.330       .  A
C63          C75   1.417       .  A
C63          C71   1.396   1_655  A
C64          C78   1.397       .  A
C64          C72   1.382   1_545  A
C65         N302   1.338       .  A
C65          C73   1.381       .  A
C65          C76   1.396       .  A
C66          C74   1.386       .  A
C66          C77   1.406       .  A
C67         C556   1.384       .  A
C67          H79   1.081       .  S
C68         C555   1.369       .  A
C68          H80   1.071       .  S
C69         C558   1.377   1_455  A
C69          H81   1.082       .  S
C70         C557   1.372       .  A
C70          H82   1.080       .  S
C71         C316   1.381       .  A
C71          H83   1.083       .  S
C72         C315   1.365       .  A
C72          H84   1.080   1_565  S
C73         C318   1.371       .  A
C73          H85   1.083       .  S
C74         C317   1.361       .  A
C74          H86   1.079       .  S
C75         C230   1.466   1_655  S
C76         C234   1.463       .  S
C77         C222   1.462       .  S
C78         C226   1.478       .  S
O89        Zr369   2.514       .  S
O89         C100   1.307       .  A
O90        Zr124   2.519       .  S
O90         C101   1.309       .  A
O91        Zr585   2.388   1_455  S
O91         C102   1.280       .  A
O92         Zr97   2.370       .  S
O92         C103   1.275       .  A
O93        Zr127   2.445       .  S
O93         C103   1.291       .  A
O94        Zr126   2.399       .  S
O94         C102   1.285       .  A
O95         Zr97   2.438       .  S
O95         C101   1.291       .  A
O96         Zr97   2.449   1_556  S
O96         C100   1.292       .  A
Zr97        O579   2.410   1_554  S
Zr97         O98   2.334       .  S
Zr97        O107   2.358   1_554  S
Zr97        O587   2.309   1_554  S
Zr97        O593   2.344       .  S
O98        Zr124   2.359       .  S
O98        Zr127   2.316       .  S
O99        Zr126   2.341   1_556  S
O99        Zr585   2.315   1_456  S
O99        Zr857   2.342   1_455  S
C100        C211   1.470       .  S
C101        C185   1.469       .  S
C102        C189   1.436   1_554  S
C103        C193   1.457       .  S
H104        O105   0.965       .  S
O105       Zr126   2.339       .  S
O105       Zr585   2.340   1_455  S
O105       Zr612   2.358   1_455  S
H106        O107   0.964       .  S
O107       Zr127   2.330   1_556  S
O107       Zr369   2.387       .  S
O108       Zr368   2.523       .  S
O108        C131   1.309       .  A
O109       Zr125   2.518   1_545  S
O109        C132   1.308       .  A
O110       Zr126   2.452       .  S
O110        C133   1.294       .  A
O111       Zr127   2.429       .  S
O111        C134   1.287       .  A
O112       Zr371   2.430   1_556  S
O112        C135   1.288       .  A
O113       Zr370   2.409   1_556  S
O113        C136   1.284   1_545  A
O114       Zr616   2.429   1_456  S
O114        C137   1.288       .  A
O115       Zr128   2.434       .  S
O115        C138   1.289   1_554  A
O116       Zr370   2.449       .  S
O116        C137   1.294   1_554  A
O117       Zr371   2.383   1_545  S
O117        C138   1.279   1_554  A
O118       Zr612   2.510   1_455  S
O118        C133   1.306       .  A
O119       Zr613   2.524   1_455  S
O119        C136   1.309       .  A
O120       Zr125   2.521       .  S
O120        C135   1.308       .  A
O121       Zr124   2.519       .  S
O121        C134   1.309       .  A
O122       Zr128   2.447       .  S
O122        C131   1.293       .  A
O123       Zr128   2.410   1_556  S
O123        C132   1.286       .  A
Zr124       O352   2.518       .  S
Zr124       O606   2.517       .  S
Zr124       O593   2.373       .  S
Zr124       O862   2.366       .  S
Zr124       O386   2.371       .  S
Zr125       O333   2.525       .  S
Zr125       O607   2.516   1_565  S
Zr125       O129   2.343   1_565  S
Zr125       O831   2.347       .  S
Zr125       O351   2.369       .  S
Zr125       O628   2.358   1_565  S
Zr126       O357   2.415   1_554  S
Zr126       O360   2.450   1_554  S
Zr126       O374   2.336       .  S
Zr126       O384   2.333   1_554  S
Zr127       O356   2.491   1_554  S
Zr127       O361   2.343       .  S
Zr127       O373   2.336   1_554  S
Zr127       O386   2.356       .  S
Zr128       O602   2.414   1_554  S
Zr128       O129   2.331   1_554  S
Zr128       O142   2.325       .  S
Zr128       O618   2.349       .  S
Zr128       O628   2.341   1_554  S
O129       Zr371   2.315   1_546  S
O130       Zr856   2.369       .  S
O130       Zr370   2.363       .  S
O130       Zr616   2.357   1_455  S
C131        C187   1.475       .  S
C132        C209   1.456       .  S
C133        C182   1.470       .  S
C134        C184   1.457       .  S
C135        C205   1.471       .  S
C136        C207   1.459       .  S
C137        C201   1.463       .  S
C138        C197   1.443       .  S
H139        O140   0.963       .  S
O140       Zr613   2.339   1_445  S
O140       Zr370   2.341   1_556  S
O140       Zr616   2.359   1_456  S
H141        O142   0.965       .  S
O142       Zr368   2.370       .  S
O142       Zr371   2.346   1_545  S
N143        C148   1.348       .  A
N143        C147   1.351       .  A
N143        H175   1.041       .  S
N144        C151   1.342       .  A
N144        C152   1.344       .  A
N145        C150   1.342       .  A
N145        C149   1.348       .  A
N145        H176   1.043       .  S
N146        C153   1.348       .  A
N146        C154   1.352       .  A
C147        C155   1.387       .  A
C147        C163   1.405       .  A
C148        C164   1.407       .  A
C148        C156   1.387       .  A
C149        C157   1.383   1_556  A
C149        C166   1.396       .  A
C150        C165   1.402       .  A
C150        C158   1.391   1_556  A
C151        C163   1.408       .  A
C151        C159   1.388       .  A
C152        C166   1.387       .  A
C152        C160   1.377       .  A
C153        C161   1.377       .  A
C153        C164   1.396       .  A
C154        C162   1.390       .  A
C154        C165   1.413       .  A
C155        C156   1.367       .  A
C155        H167   1.082       .  S
C156        H168   1.082       .  S
C157        C158   1.360       .  A
C157        H169   1.081       .  S
C158        H170   1.081       .  S
C159        C160   1.365       .  A
C159        H171   1.071       .  S
C160        H172   1.083       .  S
C161        C162   1.370       .  A
C161        H173   1.078       .  S
C162        H174   1.083       .  S
C163        C198   1.473       .  S
C164        C202   1.482       .  S
C165        C190   1.460       .  S
C166        C194   1.480   1_556  S
C177        C188   1.520       .  S
C177        C237   1.492   1_655  S
C177        C674   1.499   1_655  S
C177        C727   1.504       .  S
C178        C181   1.502       .  S
C178        C183   1.492       .  S
C178        C242   1.496       .  S
C178        C487   1.492       .  S
C179        C215   1.494   1_655  S
C179        C698   1.499       .  S
C179        C700   1.509       .  S
C179        C701   1.484       .  S
C180        C206   1.504       .  S
C180        C208   1.493       .  S
C180        C217   1.492   1_565  S
C180        C464   1.485       .  S
C181        C182   1.228       .  T
C183        C184   1.222       .  T
C185        C186   1.228       .  T
C186        C665   1.504       .  S
C187        C676   1.230       .  T
C188        C675   1.238       .  T
C189        C190   1.341       .  D
C189        H191   1.088       .  S
C190        H192   1.085       .  S
C193        C194   1.331       .  D
C193        H195   1.086       .  S
C194        H196   1.086       .  S
C197        C198   1.348       .  D
C197        H199   1.087       .  S
C198        H200   1.086       .  S
C201        C202   1.352       .  D
C201        H203   1.087       .  S
C202        H204   1.086       .  S
C205        C206   1.229       .  T
C207        C208   1.223       .  T
C209        C210   1.222       .  T
C210        C667   1.490       .  S
C211        C212   1.228       .  T
C212        C667   1.503       .  S
C213        C667   1.495       .  S
C213        C214   1.224       .  T
C215        C216   1.223       .  T
C217        C218   1.222       .  T
C219        C220   1.229       .  T
C220        C424   1.504       .  S
C221        C222   1.348       .  D
C221        H223   1.086       .  S
C222        H224   1.076       .  S
C225        C226   1.353       .  D
C225        H227   1.084       .  S
C226        H228   1.085       .  S
C229        C230   1.342       .  D
C229        H231   1.089       .  S
C230        H232   1.086       .  S
C233        C234   1.340       .  D
C233        H235   1.088       .  S
C234        H236   1.087       .  S
C237        C238   1.221       .  T
C239        C665   1.522       .  S
C239        C240   1.240       .  T
C241        C242   1.224       .  T
C243        C422   1.495       .  S
C243        C244   1.224       .  T
O245       Zr281   2.532       .  S
O245        C256   1.311       .  A
O246       Zr280   2.555       .  S
O246        C257   1.316       .  A
O247       Zr253   2.453       .  S
O247        C258   1.297       .  A
O248       Zr253   2.404       .  S
O248        C259   1.284       .  A
O249       Zr283   2.420       .  S
O249        C259   1.288       .  A
O250       Zr282   2.329       .  S
O250        C258   1.267       .  A
O251       Zr253   2.449       .  S
O251        C257   1.293       .  A
O252       Zr253   2.409       .  S
O252        C256   1.285       .  A
Zr253       O254   2.358       .  S
Zr253       O255   2.327       .  S
Zr253       O263   2.344       .  S
Zr253       O261   2.318       .  S
O254       Zr280   2.358       .  S
O254       Zr283   2.336       .  S
O255       Zr281   2.355       .  S
O255       Zr282   2.344       .  S
C256        C488   1.458       .  S
C257        C462   1.493       .  S
C258        C465   1.432       .  S
C259        C469   1.442       .  S
H260        O261   0.965       .  S
O261       Zr280   2.366       .  S
O261       Zr282   2.359       .  S
H262        O263   0.961       .  S
O263       Zr281   2.329       .  S
O263       Zr283   2.326       .  S
O264       Zr280   2.498       .  S
O264        C287   1.305       .  A
O265       Zr281   2.528       .  S
O265        C288   1.310       .  A
O266       Zr282   2.424       .  S
O266        C289   1.288       .  A
O267       Zr283   2.444       .  S
O267        C290   1.291       .  A
O268       Zr283   2.406       .  S
O268        C291   1.284       .  A
O269       Zr282   2.440       .  S
O269        C292   1.289       .  A
O270       Zr284   2.430       .  S
O270        C293   1.287       .  A
O271       Zr284   2.412       .  S
O271        C294   1.285       .  A
O272       Zr282   2.433       .  S
O272        C293   1.288       .  A
O273       Zr283   2.386       .  S
O273        C294   1.280       .  A
O274       Zr280   2.488       .  S
O274        C289   1.302       .  A
O275       Zr281   2.502       .  S
O275        C292   1.304       .  A
O276       Zr281   2.519       .  S
O276        C291   1.308       .  A
O277       Zr280   2.535       .  S
O277        C290   1.311       .  A
O278       Zr284   2.428       .  S
O278        C287   1.290       .  A
O279       Zr284   2.429       .  S
O279        C288   1.289       .  A
Zr280       O286   2.400       .  S
Zr280       O298   2.366       .  S
Zr281       O285   2.346       .  S
Zr281       O296   2.348       .  S
Zr282       O286   2.326       .  S
Zr282       O296   2.315       .  S
Zr283       O285   2.332       .  S
Zr283       O298   2.334       .  S
Zr284       O285   2.328       .  S
Zr284       O286   2.344       .  S
Zr284       O298   2.351       .  S
Zr284       O296   2.334       .  S
C287        C463   1.452       .  S
C288        C485   1.466       .  S
C289        C458   1.444       .  S
C290        C460   1.481       .  S
C291        C482   1.458       .  S
C292        C484   1.460       .  S
C293        C477   1.461       .  S
C294        C473   1.434       .  S
H295        O296   0.963       .  S
H297        O298   0.965       .  S
N299        C304   1.343       .  A
N299        C791   1.344       .  A
N299        H331   1.037       .  S
N300        C308   1.331   1_655  A
N301        C306   1.343       .  A
N301        C793   1.342       .  A
N301        H332   1.033       .  S
N302        C310   1.325       .  A
C303        N787   1.348       .  A
C303        C311   1.377   1_455  A
C303        C319   1.388       .  A
C304        C320   1.394       .  A
C304        C312   1.385       .  A
C305        N789   1.341       .  A
C305        C313   1.393       .  A
C305        C322   1.409       .  A
C306        C321   1.405       .  A
C306        C314   1.383       .  A
C307        C319   1.401       .  A
C307        C315   1.385       .  A
C308        C322   1.396       .  A
C308        C316   1.383       .  A
C309        C317   1.376       .  A
C309        C320   1.395   1_545  A
C310        C318   1.397       .  A
C310        C321   1.412       .  A
C311        C800   1.368       .  A
C311        H323   1.074       .  S
C312        C799   1.376       .  A
C312        H324   1.082       .  S
C313        C802   1.386       .  A
C313        H325   1.082       .  S
C314        C801   1.378       .  A
C314        H326   1.081       .  S
C315        H327   1.080       .  S
C316        H328   1.082       .  S
C317        H329   1.079       .  S
C318        H330   1.078       .  S
C319        C474   1.473       .  S
C320        C478   1.477       .  S
C321        C466   1.443       .  S
C322        C470   1.454       .  S
O333        C344   1.309       .  A
O334       Zr368   2.538   1_565  S
O334        C345   1.313       .  A
O335       Zr829   2.384       .  S
O335        C346   1.280       .  A
O336       Zr341   2.385       .  S
O336        C347   1.280       .  A
O337       Zr371   2.401       .  S
O337        C347   1.283       .  A
O338       Zr370   2.469   1_565  S
O338        C346   1.295       .  A
O339       Zr341   2.404       .  S
O339        C345   1.284       .  A
O340       Zr341   2.439   1_556  S
O340        C344   1.290       .  A
Zr341       O823   2.410       .  S
Zr341       O342   2.337       .  S
Zr341       O831   2.310   1_554  S
Zr341       O351   2.349   1_554  S
Zr341       O837   2.339       .  S
O342       Zr368   2.353   1_565  S
O342       Zr371   2.326       .  S
O343       Zr829   2.333   1_556  S
O343       Zr613   2.370   1_455  S
O343       Zr370   2.344   1_566  S
C344        C455   1.473       .  S
C345        C429   1.462       .  S
C346        C433   1.461       .  S
C347        C437   1.430       .  S
H348        O349   0.964       .  S
O349       Zr829   2.336       .  S
O349       Zr856   2.356   1_565  S
O349       Zr370   2.322   1_565  S
H350        O351   0.966       .  S
O351       Zr371   2.338   1_556  S
O352        C375   1.308       .  A
O353       Zr369   2.537       .  S
O353        C376   1.312       .  A
O354       Zr370   2.408       .  S
O354        C377   1.285       .  A
O355       Zr371   2.401       .  S
O355        C378   1.282       .  A
O356        C379   1.301       .  A
O357        C380   1.287       .  A
O358       Zr860   2.411   1_456  S
O358        C381   1.284       .  A
O359       Zr372   2.509       .  S
O359        C382   1.305       .  A
O360        C381   1.295       .  A
O361        C382   1.272       .  A
O362       Zr856   2.517       .  S
O362        C377   1.308       .  A
O363       Zr857   2.518   1_455  S
O363        C380   1.308       .  A
O364       Zr369   2.479       .  S
O364        C379   1.300       .  A
O365       Zr368   2.527       .  S
O365        C378   1.310   1_545  A
O366       Zr372   2.435       .  S
O366        C375   1.290       .  A
O367       Zr372   2.438   1_556  S
O367        C376   1.290       .  A
Zr368       O850   2.508       .  S
Zr368       O837   2.378   1_545  S
Zr368       O618   2.382       .  S
Zr369       O851   2.525       .  S
Zr369       O587   2.339       .  S
Zr369       O373   2.356       .  S
Zr369       O872   2.328       .  S
Zr372       O846   2.405   1_554  S
Zr372       O373   2.321   1_554  S
Zr372       O862   2.375       .  S
Zr372       O386   2.308       .  S
Zr372       O872   2.348   1_554  S
O374       Zr612   2.380   1_455  S
O374       Zr860   2.355   1_455  S
C375        C431   1.465       .  S
C376        C453   1.473       .  S
C377        C426   1.454       .  S
C378        C428   1.454   1_565  S
C379        C449   1.475       .  S
C380        C451   1.459       .  S
C381        C445   1.470       .  S
C382        C441   1.476       .  S
H383        O384   0.964       .  S
O384       Zr857   2.365   1_455  S
O384       Zr860   2.342   1_456  S
H385        O386   0.956       .  S
N387        C392   1.352       .  A
N387        C391   1.348       .  A
N387        H419   1.046       .  S
N388        C395   1.349   1_554  A
N388        C396   1.341       .  A
N389        C394   1.352       .  A
N389        C393   1.351       .  A
N389        H420   1.043       .  S
N390        C397   1.340       .  A
N390        C398   1.336       .  A
C391        C399   1.384       .  A
C391        C407   1.403       .  A
C392        C408   1.409       .  A
C392        C400   1.388       .  A
C393        C401   1.394       .  A
C393        C410   1.417       .  A
C394        C409   1.417       .  A
C394        C402   1.383       .  A
C395        C407   1.393       .  A
C395        C403   1.375       .  A
C396        C410   1.413       .  A
C396        C404   1.398       .  A
C397        C405   1.386       .  A
C397        C408   1.396       .  A
C398        C406   1.384       .  A
C398        C409   1.391   1_556  A
C399        C400   1.377       .  A
C399        H411   1.080       .  S
C400        H412   1.083       .  S
C401        C402   1.385       .  A
C401        H413   1.083       .  S
C402        H414   1.082       .  S
C403        C404   1.373   1_556  A
C403        H415   1.082       .  S
C404        H416   1.082       .  S
C405        C406   1.382       .  A
C405        H417   1.082       .  S
C406        H418   1.082       .  S
C407        C442   1.479       .  S
C408        C446   1.504       .  S
C409        C434   1.470       .  S
C410        C438   1.473       .  S
C421        C918   1.491       .  S
C421        C432   1.489   1_455  S
C421        C481   1.492       .  S
C421        C971   1.497   1_455  S
C422        C425   1.486       .  S
C422        C427   1.489       .  S
C422        C486   1.500   1_545  S
C423        C942   1.481       .  S
C423        C944   1.501   1_655  S
C423        C945   1.496       .  S
C423        C459   1.514   1_655  S
C424        C450   1.507       .  S
C424        C452   1.495       .  S
C424        C461   1.527       .  S
C425        C426   1.220       .  T
C427        C428   1.221       .  T
C429        C430   1.225       .  T
C430        C909   1.497       .  S
C431        C920   1.225       .  T
C432        C919   1.221       .  T
C433        C434   1.330       .  D
C433        H435   1.091       .  S
C434        H436   1.087       .  S
C437        C438   1.345       .  D
C437        H439   1.080       .  S
C438        H440   1.087       .  S
C441        C442   1.338   1_554  D
C441        H443   1.088       .  S
C442        H444   1.087       .  S
C445        C446   1.348       .  D
C445        H447   1.085       .  S
C446        H448   1.086       .  S
C449        C450   1.230       .  T
C451        C452   1.222       .  T
C453        C454   1.230       .  T
C454        C911   1.508       .  S
C455        C456   1.230       .  T
C456        C911   1.508       .  S
C457        C911   1.475       .  S
C457        C458   1.213       .  T
C459        C460   1.234       .  T
C461        C462   1.242       .  T
C463        C464   1.218       .  T
C465        C466   1.322       .  D
C465        H467   1.088       .  S
C466        H468   1.088       .  S
C469        C470   1.320       .  D
C469        H471   1.090       .  S
C470        H472   1.088       .  S
C473        C474   1.349       .  D
C473        H475   1.083       .  S
C474        H476   1.082       .  S
C477        C478   1.354       .  D
C477        H479   1.087       .  S
C478        H480   1.085       .  S
C481        C482   1.222       .  T
C483        C909   1.491       .  S
C483        C484   1.222       .  T
C485        C486   1.226       .  T
C487        C488   1.222       .  T
O489       Zr525   2.541       .  S
O489        C500   1.313       .  A
O490       Zr524   2.555       .  S
O490        C501   1.316       .  A
O491       Zr497   2.450       .  S
O491        C502   1.296       .  A
O492       Zr497   2.415       .  S
O492        C503   1.284       .  A
O493       Zr527   2.382       .  S
O493        C503   1.280       .  A
O494       Zr526   2.363       .  S
O494        C502   1.275       .  A
O495       Zr497   2.421       .  S
O495        C501   1.287       .  A
O496       Zr497   2.419       .  S
O496        C500   1.286       .  A
Zr497       O498   2.343       .  S
Zr497       O499   2.312       .  S
Zr497       O507   2.353       .  S
Zr497       O505   2.325       .  S
O498       Zr524   2.332       .  S
O498       Zr527   2.320       .  S
O499       Zr525   2.335       .  S
O499       Zr526   2.342       .  S
C500        C732   1.472       .  S
C501        C706   1.481       .  S
C502        C709   1.445       .  S
C503        C713   1.454       .  S
H504        O505   0.964       .  S
O505       Zr524   2.373       .  S
O505       Zr526   2.360       .  S
H506        O507   0.966       .  S
O507       Zr525   2.371       .  S
O507       Zr527   2.339       .  S
O508       Zr524   2.510       .  S
O508        C531   1.307       .  A
O509       Zr525   2.506       .  S
O509        C532   1.306       .  A
O510       Zr526   2.432       .  S
O510        C533   1.289       .  A
O511       Zr527   2.415       .  S
O511        C534   1.285       .  A
O512       Zr527   2.425       .  S
O512        C535   1.288       .  A
O513       Zr526   2.466       .  S
O513        C536   1.298       .  A
O514       Zr528   2.379       .  S
O514        C537   1.276       .  A
O515       Zr528   2.403       .  S
O515        C538   1.283       .  A
O516       Zr526   2.465       .  S
O516        C537   1.296       .  A
O517       Zr527   2.378       .  S
O517        C538   1.278       .  A
O518       Zr524   2.496       .  S
O518        C533   1.304       .  A
O519       Zr525   2.497       .  S
O519        C536   1.304       .  A
O520       Zr525   2.528       .  S
O520        C535   1.309       .  A
O521       Zr524   2.533       .  S
O521        C534   1.311       .  A
O522       Zr528   2.435       .  S
O522        C531   1.291       .  A
O523       Zr528   2.452       .  S
O523        C532   1.293       .  A
Zr524       O530   2.367       .  S
Zr524       O542   2.376       .  S
Zr525       O529   2.341       .  S
Zr525       O540   2.407       .  S
Zr526       O530   2.310       .  S
Zr526       O540   2.337       .  S
Zr527       O529   2.319       .  S
Zr527       O542   2.321       .  S
Zr528       O529   2.319       .  S
Zr528       O530   2.339       .  S
Zr528       O542   2.337       .  S
Zr528       O540   2.351       .  S
C531        C707   1.460       .  S
C532        C729   1.468       .  S
C533        C702   1.450       .  S
C534        C704   1.464       .  S
C535        C726   1.473       .  S
C536        C728   1.472       .  S
C537        C721   1.459       .  S
C538        C717   1.428       .  S
H539        O540   0.966       .  S
H541        O542   0.965       .  S
N543        C548   1.341       .  A
N543        H575   1.036       .  S
N544        C795   1.328       .  A
N544        C552   1.339   1_565  A
N545        C550   1.349   1_455  A
N545        H576   1.036   1_455  S
N546        C797   1.338   1_545  A
N546        C554   1.330       .  A
C547        C555   1.377       .  A
C547        C563   1.386       .  A
C548        C564   1.395       .  A
C548        C556   1.386       .  A
C549        C557   1.385       .  A
C549        C566   1.415       .  A
C550        C565   1.411       .  A
C550        C558   1.382       .  A
C551        N788   1.350       .  A
C551        C563   1.404       .  A
C551        C559   1.383       .  A
C552        C566   1.396       .  A
C552        C560   1.382   1_545  A
C553        N790   1.348       .  A
C553        C561   1.381       .  A
C553        C564   1.405       .  A
C554        C562   1.394       .  A
C554        C565   1.411       .  A
C555        H567   1.070       .  S
C556        H568   1.082       .  S
C557        H569   1.075       .  S
C558        H570   1.081       .  S
C559        C804   1.365       .  A
C559        H571   1.078       .  S
C560        C803   1.368       .  A
C560        H572   1.083       .  S
C561        C806   1.373       .  A
C561        H573   1.077       .  S
C562        C805   1.370       .  A
C562        H574   1.079       .  S
C563        C718   1.474       .  S
C564        C722   1.481       .  S
C565        C710   1.457       .  S
C566        C714   1.468       .  S
O577       Zr857   2.526       .  S
O577        C588   1.310       .  A
O578       Zr612   2.537       .  S
O578        C589   1.312   1_655  A
O579        C590   1.286       .  A
O580       Zr585   2.394       .  S
O580        C591   1.280       .  A
O581       Zr615   2.403       .  S
O581        C591   1.285       .  A
O582       Zr614   2.408   1_556  S
O582        C590   1.283       .  A
O583       Zr585   2.399   1_455  S
O583        C589   1.282       .  A
O584       Zr585   2.433   1_556  S
O584        C588   1.288       .  A
Zr585       O586   2.324       .  S
Zr585       O595   2.347   1_554  S
O586       Zr612   2.348       .  S
O586       Zr615   2.318       .  S
O587       Zr614   2.338   1_556  S
C588        C699   1.475       .  S
C589        C673   1.463       .  S
C590        C677   1.442       .  S
C591        C681   1.454       .  S
H592        O593   0.964       .  S
O593       Zr614   2.340       .  S
H594        O595   0.966       .  S
O595       Zr857   2.371       .  S
O595       Zr615   2.337   1_556  S
O596       Zr856   2.538   1_655  S
O596        C619   1.312       .  A
O597       Zr613   2.562   1_545  S
O597        C620   1.318       .  A
O598       Zr614   2.459       .  S
O598        C621   1.294       .  A
O599       Zr615   2.382       .  S
O599        C622   1.279       .  A
O600       Zr859   2.470   1_556  S
O600        C623   1.297       .  A
O601       Zr858   2.416   1_556  S
O601        C624   1.287       .  A
O602        C625   1.285       .  A
O603       Zr616   2.478   1_556  S
O603        C626   1.299   1_556  A
O604       Zr858   2.433   1_556  S
O604        C625   1.288       .  A
O605       Zr859   2.323   1_545  S
O605        C626   1.267       .  A
O606        C621   1.307       .  A
O607        C624   1.308       .  A
O608       Zr613   2.499       .  S
O608        C623   1.303       .  A
O609       Zr612   2.519       .  S
O609        C622   1.308       .  A
O610       Zr616   2.448       .  S
O610        C619   1.292       .  A
O611       Zr616   2.381   1_556  S
O611        C620   1.280       .  A
Zr612       O840   2.509       .  S
Zr612       O874   2.367       .  S
Zr613       O821   2.502       .  S
Zr613       O839   2.392       .  S
Zr613       O617   2.338   1_565  S
Zr614       O845   2.412   1_554  S
Zr614       O848   2.451   1_554  S
Zr614       O862   2.337       .  S
Zr614       O872   2.329   1_554  S
Zr615       O844   2.434   1_554  S
Zr615       O849   2.373       .  S
Zr615       O861   2.316   1_554  S
Zr615       O874   2.337       .  S
Zr616       O617   2.317   1_554  S
Zr616       O630   2.315       .  S
O617       Zr859   2.322   1_546  S
O618       Zr858   2.348       .  S
C619        C675   1.487       .  S
C620        C697   1.463       .  S
C621        C670   1.478       .  S
C622        C672   1.442       .  S
C623        C693   1.476       .  S
C624        C695   1.456       .  S
C625        C689   1.453       .  S
C626        C685   1.441   1_554  S
H627        O628   0.962       .  S
O628       Zr858   2.332   1_556  S
H629        O630   0.965       .  S
O630       Zr856   2.354   1_655  S
O630       Zr859   2.349   1_545  S
N631        C636   1.344       .  A
N631        C635   1.349       .  A
N631        H663   1.037       .  S
N632        C639   1.330       .  A
N632        C640   1.339   1_556  A
N633        C638   1.347       .  A
N633        C637   1.343       .  A
N633        H664   1.046       .  S
N634        C641   1.344       .  A
N634        C642   1.351       .  A
C635        C643   1.383       .  A
C635        C651   1.409       .  A
C636        C652   1.398       .  A
C636        C644   1.386       .  A
C637        C645   1.386       .  A
C637        C654   1.408   1_556  A
C638        C653   1.386       .  A
C638        C646   1.372       .  A
C639        C651   1.412       .  A
C639        C647   1.395   1_556  A
C640        C654   1.398       .  A
C640        C648   1.383       .  A
C641        C649   1.381       .  A
C641        C652   1.398       .  A
C642        C650   1.383       .  A
C642        C653   1.401       .  A
C643        C644   1.378       .  A
C643        H655   1.082       .  S
C644        H656   1.082       .  S
C645        C646   1.368       .  A
C645        H657   1.069       .  S
C646        H658   1.068       .  S
C647        C648   1.372       .  A
C647        H659   1.079       .  S
C648        H660   1.083       .  S
C649        C650   1.367       .  A
C649        H661   1.080       .  S
C650        H662   1.078       .  S
C651        C686   1.454       .  S
C652        C690   1.476       .  S
C653        C678   1.488       .  S
C654        C682   1.466       .  S
C665        C676   1.506       .  S
C665        C725   1.506       .  S
C666        C669   1.511       .  S
C666        C671   1.476       .  S
C666        C730   1.501       .  S
C666        C975   1.480       .  S
C667        C703   1.496       .  S
C668        C694   1.508       .  S
C668        C696   1.490   1_565  S
C668        C705   1.515   1_565  S
C668        C952   1.507       .  S
C669        C670   1.233       .  T
C671        C672   1.214       .  T
C673        C674   1.226       .  T
C677        C678   1.353       .  D
C677        H679   1.080       .  S
C678        H680   1.087       .  S
C681        C682   1.338       .  D
C681        H683   1.087       .  S
C682        H684   1.087       .  S
C685        C686   1.325       .  D
C685        H687   1.089   1_556  S
C686        H688   1.087       .  S
C689        C690   1.352       .  D
C689        H691   1.082       .  S
C690        H692   1.083       .  S
C693        C694   1.231       .  T
C695        C696   1.220       .  T
C697        C698   1.227       .  T
C699        C700   1.232       .  T
C701        C702   1.217       .  T
C703        C704   1.225       .  T
C705        C706   1.235       .  T
C707        C708   1.222       .  T
C708        C912   1.493       .  S
C709        C710   1.332       .  D
C709        H711   1.088       .  S
C710        H712   1.088       .  S
C713        C714   1.349       .  D
C713        H715   1.087       .  S
C714        H716   1.087       .  S
C717        C718   1.351       .  D
C717        H719   1.081       .  S
C718        H720   1.080       .  S
C721        C722   1.356       .  D
C721        H723   1.085       .  S
C722        H724   1.087       .  S
C725        C726   1.230       .  T
C727        C728   1.229       .  T
C729        C730   1.227       .  T
C731        C910   1.507       .  S
C731        C732   1.230       .  T
O733       Zr769   2.507       .  S
O733        C744   1.306       .  A
O734       Zr768   2.493       .  S
O734        C745   1.304       .  A
O735       Zr741   2.433       .  S
O735        C746   1.289       .  A
O736       Zr741   2.425       .  S
O736        C747   1.287       .  A
O737       Zr771   2.433       .  S
O737        C747   1.288       .  A
O738       Zr770   2.423       .  S
O738        C746   1.287       .  A
O739       Zr741   2.428       .  S
O739        C745   1.290       .  A
O740       Zr741   2.411       .  S
O740        C744   1.286       .  A
Zr741       O742   2.358       .  S
Zr741       O743   2.344       .  S
Zr741       O751   2.334       .  S
Zr741       O749   2.321       .  S
O742       Zr768   2.396       .  S
O742       Zr771   2.323       .  S
O743       Zr769   2.374       .  S
O743       Zr770   2.318       .  S
C744        C976   1.447       .  S
C745        C950   1.448       .  S
C746        C953   1.464       .  S
C747        C957   1.461       .  S
H748        O749   0.964       .  S
O749       Zr768   2.352       .  S
O749       Zr770   2.323       .  S
H750        O751   0.962       .  S
O751       Zr769   2.357       .  S
O751       Zr771   2.320       .  S
O752       Zr768   2.541       .  S
O752        C775   1.313       .  A
O753       Zr769   2.551       .  S
O753        C776   1.314       .  A
O754       Zr770   2.393       .  S
O754        C777   1.282       .  A
O755       Zr771   2.449       .  S
O755        C778   1.292       .  A
O756       Zr771   2.433       .  S
O756        C779   1.289       .  A
O757       Zr770   2.443       .  S
O757        C780   1.291       .  A
O758       Zr772   2.401       .  S
O758        C781   1.282       .  A
O759       Zr772   2.445       .  S
O759        C782   1.295       .  A
O760       Zr770   2.399       .  S
O760        C781   1.284       .  A
O761       Zr771   2.336       .  S
O761        C782   1.269       .  A
O762       Zr768   2.543       .  S
O762        C777   1.314       .  A
O763       Zr769   2.499       .  S
O763        C780   1.304       .  A
O764       Zr769   2.509       .  S
O764        C779   1.306       .  A
O765       Zr768   2.509       .  S
O765        C778   1.306       .  A
O766       Zr772   2.418       .  S
O766        C775   1.287       .  A
O767       Zr772   2.420       .  S
O767        C776   1.286       .  A
Zr768       O774   2.336       .  S
Zr768       O786   2.363       .  S
Zr769       O773   2.339       .  S
Zr769       O784   2.359       .  S
Zr770       O774   2.330       .  S
Zr770       O784   2.350       .  S
Zr771       O773   2.350       .  S
Zr771       O786   2.356       .  S
Zr772       O773   2.308       .  S
Zr772       O774   2.331       .  S
Zr772       O786   2.338       .  S
Zr772       O784   2.361       .  S
C775        C951   1.474       .  S
C776        C973   1.478       .  S
C777        C946   1.459       .  S
C778        C948   1.471       .  S
C779        C970   1.461       .  S
C780        C972   1.465       .  S
C781        C965   1.452       .  S
C782        C961   1.435       .  S
H783        O784   0.966       .  S
H785        O786   0.965       .  S
N787        C792   1.344   1_455  A
N787        H819   1.045       .  S
N788        C796   1.347       .  A
N789        C794   1.341       .  A
N789        H820   1.042   1_455  S
N790        C798   1.350       .  A
C791        C799   1.384       .  A
C791        C807   1.403       .  A
C792        C808   1.412       .  A
C792        C800   1.385       .  A
C793        C801   1.385       .  A
C793        C810   1.396       .  A
C794        C809   1.389   1_455  A
C794        C802   1.380       .  A
C795        C807   1.409       .  A
C795        C803   1.395       .  A
C796        C810   1.398       .  A
C796        C804   1.377       .  A
C797        C805   1.383   1_565  A
C797        C808   1.398       .  A
C798        C806   1.389       .  A
C798        C809   1.410       .  A
C799        H811   1.082       .  S
C800        H812   1.071       .  S
C801        H813   1.082       .  S
C802        H814   1.082       .  S
C803        H815   1.078       .  S
C804        H816   1.080       .  S
C805        H817   1.083       .  S
C806        H818   1.083       .  S
C807        C962   1.445       .  S
C808        C966   1.465       .  S
C809        C954   1.482       .  S
C810        C958   1.481       .  S
O821        C832   1.305   1_655  A
O822       Zr856   2.515   1_565  S
O822        C833   1.308       .  A
O823        C834   1.285   1_554  A
O824       Zr829   2.394   1_655  S
O824        C835   1.278       .  A
O825       Zr859   2.397       .  S
O825        C835   1.283       .  A
O826       Zr858   2.411   1_566  S
O826        C834   1.284       .  A
O827       Zr829   2.416       .  S
O827        C833   1.286       .  A
O828       Zr829   2.457   1_556  S
O828        C832   1.294       .  A
Zr829       O830   2.338   1_455  S
Zr829       O839   2.346   1_454  S
O830       Zr856   2.367   1_665  S
O830       Zr859   2.301       .  S
O831       Zr858   2.340   1_566  S
C832        C943   1.469       .  S
C833        C917   1.454       .  S
C834        C921   1.446       .  S
C835        C925   1.457       .  S
H836        O837   0.965       .  S
O837       Zr858   2.339   1_565  S
H838        O839   0.966       .  S
O839       Zr859   2.332   1_556  S
O840        C863   1.306       .  A
O841       Zr857   2.505       .  S
O841        C864   1.306       .  A
O842       Zr858   2.451       .  S
O842        C865   1.294       .  A
O843       Zr859   2.412       .  S
O843        C866   1.285       .  A
O844        C867   1.289       .  A
O845        C868   1.286       .  A
O846        C869   1.283       .  A
O847       Zr860   2.431       .  S
O847        C870   1.288       .  A
O848        C869   1.296       .  A
O849        C870   1.279       .  A
O850        C865   1.307       .  A
O851        C868   1.309       .  A
O852       Zr857   2.519       .  S
O852        C867   1.307       .  A
O853       Zr856   2.517   1_655  S
O853        C866   1.307   1_545  A
O854       Zr860   2.429       .  S
O854        C863   1.289       .  A
O855       Zr860   2.405   1_556  S
O855        C864   1.284       .  A
Zr857       O861   2.354       .  S
Zr860       O861   2.333   1_554  S
Zr860       O874   2.323       .  S
C863        C919   1.458       .  S
C864        C941   1.445       .  S
C865        C914   1.468       .  S
C866        C916   1.456       .  S
C867        C937   1.471       .  S
C868        C939   1.460       .  S
C869        C933   1.452       .  S
C870        C929   1.449       .  S
H871        O872   0.957       .  S
H873        O874   0.965       .  S
N875        C880   1.337       .  A
N875        C879   1.339       .  A
N875        H907   1.039       .  S
N876        C883   1.332       .  A
N876        C884   1.327       .  A
N877        C882   1.349       .  A
N877        C881   1.348       .  A
N877        H908   1.040       .  S
N878        C885   1.348       .  A
N878        C886   1.350       .  A
C879        C887   1.389       .  A
C879        C895   1.409   1_556  A
C880        C896   1.386       .  A
C880        C888   1.381       .  A
C881        C889   1.390       .  A
C881        C898   1.426   1_556  A
C882        C897   1.388       .  A
C882        C890   1.374       .  A
C883        C895   1.403       .  A
C883        C891   1.390       .  A
C884        C898   1.395       .  A
C884        C892   1.388       .  A
C885        C893   1.375       .  A
C885        C896   1.401       .  A
C886        C894   1.385       .  A
C886        C897   1.402       .  A
C887        C888   1.388       .  A
C887        H899   1.082       .  S
C888        H900   1.081       .  S
C889        C890   1.369       .  A
C889        H901   1.066       .  S
C890        H902   1.079       .  S
C891        C892   1.381       .  A
C891        H903   1.083       .  S
C892        H904   1.082       .  S
C893        C894   1.366       .  A
C893        H905   1.073       .  S
C894        H906   1.082       .  S
C895        C930   1.455       .  S
C896        C934   1.476       .  S
C897        C922   1.479       .  S
C898        C926   1.455       .  S
C909        C920   1.498       .  S
C909        C969   1.495       .  S
C910        C913   1.501       .  S
C910        C915   1.491       .  S
C910        C974   1.511   1_545  S
C911        C947   1.506       .  S
C912        C938   1.503       .  S
C912        C940   1.494       .  S
C912        C949   1.481       .  S
C913        C914   1.227       .  T
C915        C916   1.221   1_545  T
C917        C918   1.220       .  T
C921        C922   1.349       .  D
C921        H923   1.083       .  S
C922        H924   1.083       .  S
C925        C926   1.339       .  D
C925        H927   1.088       .  S
C926        H928   1.087       .  S
C929        C930   1.345       .  D
C929        H931   1.089       .  S
C930        H932   1.086       .  S
C933        C934   1.356       .  D
C933        H935   1.086       .  S
C934        H936   1.087       .  S
C937        C938   1.229       .  T
C939        C940   1.224       .  T
C941        C942   1.215       .  T
C943        C944   1.227       .  T
C945        C946   1.225       .  T
C947        C948   1.229       .  T
C949        C950   1.216       .  T
C951        C952   1.231       .  T
C953        C954   1.350       .  D
C953        H955   1.086       .  S
C954        H956   1.086       .  S
C957        C958   1.354       .  D
C957        H959   1.085       .  S
C958        H960   1.085       .  S
C961        C962   1.325       .  D
C961        H963   1.089       .  S
C962        H964   1.087       .  S
C965        C966   1.341       .  D
C965        H967   1.087       .  S
C966        H968   1.087       .  S
C969        C970   1.223       .  T
C971        C972   1.226       .  T
C973        C974   1.233       .  T
C975        C976   1.215       .  T
