geometry optimzed in LAMMPS
_audit_creation_date              2020-12-01 
_audit_creation_method            'lammps2cif' 
_symmetry_space_group_name_H-M    'P1' 
_symmetry_Int_Tables_number       1 
_symmetry_cell_setting            triclinic 
loop_ 
_symmetry_equiv_pos_as_xyz 
  x,y,z 
_cell_length_a                    44.52044058 
_cell_length_b                    44.47818260974985 
_cell_length_c                    44.60041139866441 
_cell_angle_alpha                 90.0811962522494 
_cell_angle_beta                  90.11177708063124 
_cell_angle_gamma                 89.90708904711637 
loop_ 
_atom_site_label 
_atom_site_type_symbol 
_atom_site_fract_x 
_atom_site_fract_y 
_atom_site_fract_z 
_atom_site_charge 
C1          C  0.09341417  0.08845262  0.09265609     0.87800
C2          C  0.11558068  0.07233910  0.11422593    -0.52400
C3          C  0.13236855  0.09145835  0.13133917     0.10700
C4          C  0.12593917  0.12483141  0.12572302     0.21700
C5          C  0.07498360  0.10923688  0.11341817    -0.53100
C6          C  0.09197754  0.12821753  0.13047829     0.10800
C7          C  0.11363937  0.11011594  0.07453154    -0.52700
C8          C  0.13062576  0.12900352  0.09191357     0.11400
H9          H  0.11821239  0.04826818  0.11641795     0.15900
H10         H  0.13968323  0.14023021  0.13979969     0.01700
H11         H  0.05060511  0.10900081  0.11440956     0.16200
H12         H  0.11455195  0.11026351  0.05020042     0.16000
C13         C  0.94080200  0.09127813  0.93229831     0.87800
C14         C  0.95685684  0.11345705  0.91077711    -0.52400
C15         C  0.93769145  0.13052317  0.89394840     0.10700
C16         C  0.90438399  0.12434134  0.89980332     0.21700
C17         C  0.91937905  0.11153237  0.95074798    -0.53100
C18         C  0.90044764  0.12874028  0.93367481     0.10800
C19         C  0.91979811  0.07312594  0.91148255    -0.52700
C20         C  0.90083001  0.09045185  0.89472392     0.11400
H21         H  0.98090319  0.11571960  0.90827282     0.15900
H22         H  0.88892879  0.13829303  0.88598088     0.01700
H23         H  0.91925103  0.11213048  0.97509253     0.16200
H24         H  0.91989823  0.04873311  0.91021757     0.16000
C25         C  0.93879527  0.93920928  0.09407609     0.87800
C26         C  0.91710518  0.95563800  0.11589330    -0.52400
C27         C  0.89981962  0.93675602  0.13268532     0.10700
C28         C  0.90538714  0.90330137  0.12656640     0.21700
C29         C  0.95675331  0.91769734  0.11465418    -0.53100
C30         C  0.93921933  0.89897707  0.13144932     0.10800
C31         C  0.91805572  0.91822982  0.07565392    -0.52700
C32         C  0.90069618  0.89953987  0.09269069     0.11400
H33         H  0.91527392  0.97974126  0.11856104     0.15900
H34         H  0.89125052  0.88808259  0.14035344     0.01700
H35         H  0.98112543  0.91729473  0.11572721     0.16200
H36         H  0.91730984  0.91816408  0.05131205     0.16000
C37         C  0.09146095  0.93457112  0.93311670     0.87800
C38         C  0.07531452  0.91208826  0.91188428    -0.52400
C39         C  0.09431665  0.89449964  0.89546669     0.10700
C40         C  0.12770361  0.90054603  0.90135332     0.21700
C41         C  0.11273345  0.91447324  0.95201399    -0.53100
C42         C  0.13156664  0.89671331  0.93534876     0.10800
C43         C  0.11270145  0.95214328  0.91209605    -0.52700
C44         C  0.13160381  0.93434963  0.89567061     0.11400
H45         H  0.05126375  0.90988875  0.90932653     0.15900
H46         H  0.14301697  0.88616190  0.88784445     0.01700
H47         H  0.11272093  0.91427108  0.97636300     0.16200
H48         H  0.11275866  0.97650471  0.91042435     0.16000
C49         C  0.01581092  0.01326524  0.01239357    -0.01200
N50         N  0.73093859  0.82224491  0.52532752    -0.26000
N51         N  0.75772792  0.82532772  0.51313086    -0.33800
C52         C  0.76363467  0.85448613  0.50875409     0.02400
C53         C  0.73937078  0.87114596  0.51862832     0.08400
C54         C  0.71879745  0.84993039  0.52879163    -0.04700
H55         H  0.78451691  0.86272966  0.49959554     0.09100
H56         H  0.69715349  0.85438664  0.53886185     0.10300
Cu57       Cu  0.78731562  0.79078864  0.50638015     0.44200
Cu58       Cu  0.71562232  0.77944768  0.53789022     0.42000
Cu59       Cu  0.77550190  0.71899813  0.53741413     0.43900
N60         N  0.82123196  0.76003888  0.51058706    -0.33400
N61         N  0.81799706  0.73332911  0.52298489    -0.27600
C62         C  0.84547772  0.72061095  0.52564304    -0.03700
C63         C  0.86675779  0.74071633  0.51477164     0.08500
C64         C  0.85033039  0.76528971  0.50520244     0.02300
H65         H  0.84982417  0.69906028  0.53600938     0.10000
H66         H  0.85877770  0.78611818  0.49605393     0.09000
N67         N  0.72993598  0.71255537  0.54792031    -0.34800
N68         N  0.70888253  0.73375695  0.54788285    -0.27000
C69         C  0.68235285  0.72113660  0.55517547    -0.02200
C70         C  0.68682214  0.69076616  0.55996810     0.06400
C71         C  0.71716033  0.68608582  0.55528669     0.04500
H72         H  0.66133070  0.73324913  0.55690713     0.09600
H73         H  0.72912642  0.66496871  0.55707348     0.08400
N74         N  0.52262203  0.73502107  0.82398429    -0.26000
N75         N  0.50954575  0.76141524  0.82765116    -0.33800
C76         C  0.50524936  0.76669613  0.85687336     0.02400
C77         C  0.51628606  0.74251697  0.87289332     0.08400
C78         C  0.52685526  0.72255970  0.85129612    -0.04700
H79         H  0.49583780  0.78732904  0.86563677     0.09100
H80         H  0.53809288  0.70134332  0.85524452     0.10300
Cu81       Cu  0.50335918  0.79224222  0.79421754     0.44200
Cu82       Cu  0.53607327  0.72077633  0.78127041     0.42000
Cu83       Cu  0.53650134  0.78170117  0.72303658     0.43900
N84         N  0.51009770  0.82696330  0.76496990    -0.33400
N85         N  0.52298146  0.82394425  0.73851667    -0.27600
C86         C  0.52689496  0.85155927  0.72664239    -0.03700
C87         C  0.51636179  0.87271664  0.74702620     0.08500
C88         C  0.50572638  0.85615833  0.77093262     0.02300
H89         H  0.53773702  0.85599016  0.70541896     0.10000
H90         H  0.49630412  0.86452139  0.79166236     0.09000
N91         N  0.54704091  0.73650322  0.71533414    -0.34800
N92         N  0.54675823  0.71491087  0.73584788    -0.27000
C93         C  0.55435515  0.68870905  0.72263049    -0.02200
C94         C  0.55964990  0.69406989  0.69260445     0.06400
C95         C  0.55486924  0.72448751  0.68870725     0.04500
H96         H  0.55592507  0.66733607  0.73408687     0.09600
H97         H  0.55688949  0.73702280  0.66803729     0.08400
N98         N  0.51229395  0.73343466  0.20696992    -0.26000
N99         N  0.52634389  0.75936591  0.20410517    -0.33800
C100        C  0.53080616  0.76521837  0.17500622     0.02400
C101        C  0.51889512  0.74185001  0.15838505     0.08400
C102        C  0.50762332  0.72181962  0.17938174    -0.04700
H103        H  0.54076149  0.78574166  0.16671604     0.09100
H104        H  0.49546105  0.70126251  0.17486280     0.10300
Cu105      Cu  0.53279341  0.78903925  0.23865368     0.44200
Cu106      Cu  0.49746930  0.71884043  0.24881560     0.42000
Cu107      Cu  0.49534147  0.77805552  0.30832124     0.43900
N108        N  0.52402305  0.82347751  0.26791029    -0.33400
N109        N  0.50955584  0.82034761  0.29352945    -0.27600
C110        C  0.50437146  0.84796695  0.30504466    -0.03700
C111        C  0.51571438  0.86922739  0.28529596     0.08500
C112        C  0.52814827  0.85273414  0.26215747     0.02300
H113        H  0.49205899  0.85231938  0.32548743     0.10000
H114        H  0.53857341  0.86119729  0.24198856     0.09000
N115        N  0.48356041  0.73287649  0.31443143    -0.34800
N116        N  0.48448575  0.71193771  0.29323048    -0.27000
C117        C  0.47520036  0.68562738  0.30485750    -0.02200
C118        C  0.46808656  0.69016480  0.33460902     0.06400
C119        C  0.47359019  0.72026270  0.34002123     0.04500
H120        H  0.47344576  0.66480170  0.29241232     0.09600
H121        H  0.47032394  0.73221211  0.36091381     0.08400
N122        N  0.73118606  0.50682302  0.20143304    -0.26000
N123        N  0.75666257  0.52172802  0.19886067    -0.33800
C124        C  0.76322520  0.52564666  0.16983175     0.02400
C125        C  0.74078889  0.51261936  0.15282234     0.08400
C126        C  0.72055730  0.50113498  0.17359138    -0.04700
H127        H  0.78348514  0.53636654  0.16189430     0.09100
H128        H  0.70040055  0.48844669  0.16878186     0.10300
Cu129      Cu  0.78483026  0.53113854  0.23390811     0.44200
Cu130      Cu  0.71572785  0.49301522  0.24364564     0.42000
Cu131      Cu  0.77431729  0.49573100  0.30398450     0.43900
N132        N  0.81920814  0.52456280  0.26366835    -0.33400
N133        N  0.81620339  0.51058934  0.28956307    -0.27600
C134        C  0.84377431  0.50574170  0.30120002    -0.03700
C135        C  0.86489018  0.51677061  0.28120191     0.08500
C136        C  0.84839165  0.52873821  0.25782647     0.02300
H137        H  0.84819120  0.49353084  0.32170621     0.10000
H138        H  0.85679743  0.53845787  0.23728435     0.09000
N139        N  0.72975338  0.48278050  0.31011514    -0.34800
N140        N  0.70887284  0.48180310  0.28885767    -0.27000
C141        C  0.68290680  0.47233831  0.30115240    -0.02200
C142        C  0.68775483  0.46715372  0.33132714     0.06400
C143        C  0.71756375  0.47397368  0.33627743     0.04500
H144        H  0.66208073  0.46935684  0.28897076     0.09600
H145        H  0.72960582  0.47256613  0.35732872     0.08400
O146        O  0.56235926  0.73970435  0.01561868    -0.71600
O147        O  0.47219369  0.73909013  0.01617544    -0.72600
O148        O  0.51706763  0.73872148  0.97076017    -0.61200
O149        O  0.51762064  0.73910360  0.06096592    -0.69600
O150        O  0.51718391  0.78902013  0.06090643    -0.69200
O151        O  0.51664789  0.78863817  0.97092000    -0.60400
O152        O  0.47148955  0.78899106  0.01583756    -0.72900
O153        O  0.56216015  0.78961882  0.01595099    -0.71700
Cu154      Cu  0.51731508  0.73742760  0.01589342     1.04600
Cu155      Cu  0.51684419  0.79082324  0.01590125     1.04300
C156        C  0.57648196  0.76469560  0.01574275     0.94600
C157        C  0.45759738  0.76386299  0.01599971     0.93700
C158        C  0.51671893  0.76369233  0.95665391     0.85900
C159        C  0.51768513  0.76409355  0.07511620     0.92100
O160        O  0.79029586  0.51380007  0.96538398    -0.71600
O161        O  0.78943959  0.51321748  0.05574099    -0.72600
O162        O  0.79003810  0.46812749  0.00987981    -0.61200
O163        O  0.79099832  0.55890118  0.01116040    -0.69600
O164        O  0.74115087  0.55926954  0.01038982    -0.69200
O165        O  0.74018565  0.46884313  0.00966037    -0.60400
O166        O  0.73958768  0.51362733  0.05514840    -0.72900
O167        O  0.74044122  0.51444967  0.96503011    -0.71700
Cu168      Cu  0.79195839  0.51348142  0.01057203     1.04600
Cu169      Cu  0.73863445  0.51406543  0.01004547     1.04300
C170        C  0.76541253  0.51416558  0.95099932     0.94600
C171        C  0.76433982  0.51342681  0.06966273     0.93700
C172        C  0.76493980  0.45422853  0.00950767     0.85900
C173        C  0.76616808  0.57335654  0.01091412     0.92100
N174        N  0.79597549  0.70614460  0.02346841    -0.26000
N175        N  0.76985815  0.70346792  0.00966718    -0.33800
C176        C  0.76410583  0.67440962  0.00422182     0.02400
C177        C  0.78771927  0.65741128  0.01512116     0.08400
C178        C  0.80777182  0.67831895  0.02696502    -0.04700
H179        H  0.74361709  0.66640928  0.99391554     0.09100
H180        H  0.82872769  0.67352523  0.03832319     0.10300
Cu181      Cu  0.74023904  0.73816006  0.00334764     0.44200
Cu182      Cu  0.81108013  0.74848945  0.03823336     0.42000
Cu183      Cu  0.75139678  0.80804433  0.03983704     0.43900
N184        N  0.70596187  0.76797867  0.01078184    -0.33400
N185        N  0.70905159  0.79369070  0.02525847    -0.27600
C186        C  0.68147658  0.80563890  0.02960406    -0.03700
C187        C  0.66027784  0.78607324  0.01761824     0.08500
C188        C  0.67680425  0.76262250  0.00570290     0.02300
H189        H  0.67708019  0.82626267  0.04172399     0.10000
H190        H  0.66840940  0.74246784  0.99502775     0.09000
N191        N  0.79685491  0.81499825  0.04996487    -0.34800
N192        N  0.81808829  0.79401310  0.04936027    -0.27000
C193        C  0.84456922  0.80682565  0.05673959    -0.02200
C194        C  0.83979134  0.83709924  0.06216189     0.06400
C195        C  0.80937766  0.84148957  0.05772769     0.04500
H196        H  0.86574301  0.79493042  0.05812153     0.09600
H197        H  0.79716898  0.86241994  0.06001608     0.08400
N198        N  0.73355503  0.52490109  0.81924004    -0.26000
N199        N  0.75938859  0.51046173  0.82146265    -0.33800
C200        C  0.76574848  0.50526643  0.85036816     0.02400
C201        C  0.74281090  0.51699116  0.86761936     0.08400
C202        C  0.72251320  0.52902390  0.84714019    -0.04700
H203        H  0.78617525  0.49458639  0.85809493     0.09100
H204        H  0.70198643  0.54101828  0.85224256     0.10300
Cu205      Cu  0.78783004  0.50290754  0.78623266     0.44200
Cu206      Cu  0.71784274  0.54000471  0.77754686     0.42000
Cu207      Cu  0.77569393  0.53909104  0.71659573     0.43900
N208        N  0.82129156  0.50861579  0.75535462    -0.33400
N209        N  0.81787651  0.52298346  0.72970543    -0.27600
C210        C  0.84518102  0.52632271  0.71699027    -0.03700
C211        C  0.86658557  0.51377396  0.73596496     0.08500
C212        C  0.85041352  0.50258218  0.75989800     0.02300
H213        H  0.84932923  0.53829340  0.69631415     0.10000
H214        H  0.85906106  0.49194302  0.77992047     0.09000
N215        N  0.73048453  0.55092003  0.71097755    -0.34800
N216        N  0.70995710  0.55124670  0.73252082    -0.27000
C217        C  0.68327340  0.55914658  0.72049320    -0.02200
C218        C  0.68717393  0.56389568  0.69013540     0.06400
C219        C  0.71727545  0.55858147  0.68484998     0.04500
H220        H  0.66251266  0.56104273  0.73292930     0.09600
H221        H  0.72874394  0.55992778  0.66352812     0.08400
N222        N  0.29095117  0.82011864  0.50374129    -0.26000
N223        N  0.26446567  0.82319498  0.51664067    -0.33800
C224        C  0.25909569  0.85235199  0.52211442     0.02400
C225        C  0.28339379  0.86887087  0.51215796     0.08400
C226        C  0.30338761  0.84765006  0.50088941    -0.04700
H227        H  0.23840358  0.86078105  0.53162377     0.09100
H228        H  0.32468627  0.85206281  0.49013555     0.10300
Cu229      Cu  0.23415525  0.78886186  0.52137680     0.44200
Cu230      Cu  0.30560809  0.77802927  0.48841734     0.42000
Cu231      Cu  0.24528260  0.71913383  0.48439823     0.43900
N232        N  0.19981741  0.75917706  0.51358104    -0.33400
N233        N  0.20283860  0.73348252  0.49904549    -0.27600
C234        C  0.17523018  0.72146196  0.49507079    -0.03700
C235        C  0.15407860  0.74092864  0.50742584     0.08500
C236        C  0.17071239  0.76442701  0.51907445     0.02300
H237        H  0.17076326  0.70072067  0.48318447     0.10000
H238        H  0.16243386  0.78445204  0.53008613     0.09000
N239        N  0.29081396  0.71232279  0.47408166    -0.34800
N240        N  0.31215064  0.73309751  0.47556433    -0.27000
C241        C  0.33859318  0.72046024  0.46780400    -0.02200
C242        C  0.33371244  0.69048696  0.46121494     0.06400
C243        C  0.30328545  0.68608807  0.46535268     0.04500
H244        H  0.35981154  0.73226195  0.46705644     0.09600
H245        H  0.29105659  0.66530241  0.46229892     0.08400
O246        O  0.96529388  0.78616525  0.51358170    -0.71600
O247        O  0.05550568  0.78608899  0.51324710    -0.72600
O248        O  0.01003761  0.78611787  0.46835674    -0.61200
O249        O  0.01074707  0.78706392  0.55866431    -0.69600
O250        O  0.01058819  0.73715640  0.55889239    -0.69200
O251        O  0.01019879  0.73620260  0.46889450    -0.60400
O252        O  0.05582443  0.73618296  0.51334438    -0.72900
O253        O  0.96506660  0.73626252  0.51404624    -0.71700
Cu254      Cu  0.01040020  0.78809144  0.51347180     1.04600
Cu255      Cu  0.01043035  0.73470430  0.51384916     1.04300
C256        C  0.95093762  0.76129877  0.51371179     0.94600
C257        C  0.06990618  0.76120377  0.51299503     0.93700
C258        C  0.01011597  0.76098689  0.45444547     0.85900
C259        C  0.01058432  0.76220464  0.57298498     0.92100
O260        O  0.05566547  0.51491720  0.73234291    -0.71600
O261        O  0.96494037  0.51252008  0.73119588    -0.72600
O262        O  0.00881640  0.55889707  0.73293122    -0.61200
O263        O  0.01168656  0.46852262  0.73135360    -0.69600
O264        O  0.01085790  0.46777868  0.78111511    -0.69200
O265        O  0.00872232  0.55815740  0.78269905    -0.60400
O266        O  0.96491734  0.51170681  0.78097222    -0.72900
O267        O  0.05475693  0.51414115  0.78210451    -0.71700
Cu268      Cu  0.01030625  0.51374213  0.73017392     1.04600
Cu269      Cu  0.00980362  0.51291641  0.78341431     1.04300
C270        C  0.06942147  0.51496366  0.75753655     0.94600
C271        C  0.95072744  0.51168272  0.75606000     0.93700
C272        C  0.00833187  0.57276178  0.75805676     0.85900
C273        C  0.01159626  0.45392182  0.75602201     0.92100
N274        N  0.01852917  0.70454955  0.79019332    -0.26000
N275        N  0.00267830  0.70245182  0.76522278    -0.33800
C276        C  0.99689724  0.67348131  0.75927501     0.02400
C277        C  0.00975236  0.65611676  0.78154718     0.08400
C278        C  0.02301413  0.67657074  0.80105048    -0.04700
H279        H  0.98534679  0.66574095  0.73936494     0.09100
H280        H  0.03632042  0.67137493  0.82069873     0.10300
Cu281      Cu  0.99506219  0.73762440  0.73648416     0.44200
Cu282      Cu  0.03562326  0.74587009  0.80489740     0.42000
Cu283      Cu  0.03442003  0.80624019  0.74711534     0.43900
N284        N  0.00305486  0.76720544  0.70218069    -0.33400
N285        N  0.01843654  0.79238553  0.70518891    -0.27600
C286        C  0.02349487  0.80384844  0.67763418    -0.03700
C287        C  0.01110533  0.78450002  0.65649783     0.08500
C288        C  0.99814364  0.76170867  0.67303344     0.02300
H289        H  0.03662532  0.82379655  0.67321618     0.10000
H290        H  0.98708235  0.74176916  0.66462798     0.09000
N291        N  0.04815199  0.81202976  0.79167298    -0.34800
N292        N  0.04882367  0.79050167  0.81222638    -0.27000
C293        C  0.05863444  0.80230859  0.83833199    -0.02200
C294        C  0.06431913  0.83252913  0.83399925     0.06400
C295        C  0.05745420  0.83796468  0.80428091     0.04500
H296        H  0.06122576  0.78982417  0.85898155     0.09600
H297        H  0.05897760  0.85924012  0.79265360     0.08400
N298        N  0.28866907  0.50590030  0.82084440    -0.26000
N299        N  0.26185652  0.51798314  0.82476773    -0.33800
C300        C  0.25632511  0.52095792  0.85417622     0.02400
C301        C  0.28092196  0.51028539  0.86985175     0.08400
C302        C  0.30118171  0.50114380  0.84800977    -0.04700
H303        H  0.23558020  0.52970451  0.86328906     0.09100
H304        H  0.32293204  0.49088016  0.85164393     0.10300
Cu305      Cu  0.23207263  0.52608952  0.79056719     0.44200
Cu306      Cu  0.30424919  0.49449135  0.77810261     0.42000
Cu307      Cu  0.24565300  0.49512430  0.71812716     0.43900
N308        N  0.19894237  0.52108931  0.75895517    -0.33400
N309        N  0.20295644  0.50871320  0.73233752    -0.27600
C310        C  0.17582018  0.50519732  0.71919715    -0.03700
C311        C  0.15390271  0.51553271  0.73884082     0.08500
C312        C  0.16958505  0.52565143  0.76365670     0.02300
H313        H  0.17218523  0.49461897  0.69763904     0.10000
H314        H  0.16048069  0.53460078  0.78428162     0.09000
N315        N  0.29096835  0.48420462  0.71165139    -0.34800
N316        N  0.31181947  0.48411494  0.73294913    -0.27000
C317        C  0.33829087  0.47591701  0.72077090    -0.02200
C318        C  0.33390857  0.47066636  0.69054825     0.06400
C319        C  0.30375655  0.47605422  0.68549095     0.04500
H320        H  0.35912119  0.47366862  0.73311150     0.09600
H321        H  0.29188333  0.47397304  0.66440041     0.08400
N322        N  0.73219699  0.20711776  0.50219404    -0.26000
N323        N  0.75816720  0.20446544  0.51627901    -0.33800
C324        C  0.76373409  0.17541646  0.52205562     0.02400
C325        C  0.74012071  0.15850120  0.51107259     0.08400
C326        C  0.72028371  0.17938050  0.49887227    -0.04700
H327        H  0.78409514  0.16732212  0.53257606     0.09100
H328        H  0.69945614  0.17460684  0.48728557     0.10300
Cu329      Cu  0.78765673  0.23927851  0.52253141     0.44200
Cu330      Cu  0.71740537  0.24914241  0.48665044     0.42000
Cu331      Cu  0.77627610  0.30957707  0.48686703     0.43900
N332        N  0.82181967  0.26932942  0.51576380    -0.33400
N333        N  0.81872544  0.29520344  0.50162060    -0.27600
C334        C  0.84634671  0.30704871  0.49739358    -0.03700
C335        C  0.86756800  0.28723291  0.50906985     0.08500
C336        C  0.85098458  0.26378975  0.52073899     0.02300
H337        H  0.85077545  0.32770161  0.48541759     0.10000
H338        H  0.85935940  0.24343439  0.53103463     0.09000
N339        N  0.73078586  0.31584949  0.47583040    -0.34800
N340        N  0.70999801  0.29447613  0.47560023    -0.27000
C341        C  0.68339388  0.30683946  0.46784641    -0.02200
C342        C  0.68757072  0.33726237  0.46309089     0.06400
C343        C  0.71778549  0.34219801  0.46827391     0.04500
H344        H  0.66251896  0.29455694  0.46591947     0.09600
H345        H  0.72951067  0.36342544  0.46671737     0.08400
O346        O  0.73623588  0.01445590  0.46957684    -0.71600
O347        O  0.73649563  0.01540853  0.55958097    -0.72600
O348        O  0.73609570  0.06029895  0.51409385    -0.61200
O349        O  0.73556187  0.96955189  0.51525629    -0.69600
O350        O  0.78542113  0.96944723  0.51504659    -0.69200
O351        O  0.78595121  0.05983124  0.51427538    -0.60400
O352        O  0.78637205  0.01519767  0.55958539    -0.72900
O353        O  0.78610152  0.01399706  0.46951787    -0.71700
Cu354      Cu  0.73434704  0.01494455  0.51461165     1.04600
Cu355      Cu  0.78769112  0.01460751  0.51458441     1.04300
C356        C  0.76113766  0.01410000  0.45535815     0.94600
C357        C  0.76147399  0.01538963  0.57374856     0.93700
C358        C  0.76112705  0.07432811  0.51417215     0.85900
C359        C  0.76047652  0.95524540  0.51539777     0.92100
O360        O  0.51540778  0.97037945  0.74259532    -0.71600
O361        O  0.51555282  0.06079644  0.74092649    -0.72600
O362        O  0.56037050  0.01522649  0.74208566    -0.61200
O363        O  0.47055784  0.01586483  0.74213766    -0.69600
O364        O  0.47030613  0.01667007  0.79191974    -0.69200
O365        O  0.56087756  0.01626302  0.79186658    -0.60400
O366        O  0.51590082  0.06159861  0.79070450    -0.72900
O367        O  0.51536251  0.97139985  0.79237051    -0.71700
Cu368      Cu  0.51546259  0.01554085  0.74022424     1.04600
Cu369      Cu  0.51560819  0.01653097  0.79348416     1.04300
C370        C  0.51531951  0.95667450  0.76774879     0.94600
C371        C  0.51587836  0.07541717  0.76560052     0.93700
C372        C  0.57481146  0.01551549  0.76684775     0.85900
C373        C  0.45623449  0.01636271  0.76691382     0.92100
N374        N  0.79325274  0.02086295  0.70555341    -0.26000
N375        N  0.76670406  0.00801289  0.70266896    -0.33800
C376        C  0.76029588  0.00431112  0.67356752     0.02400
C377        C  0.78395950  0.01538829  0.65694572     0.08400
C378        C  0.80471540  0.02545286  0.67794272    -0.04700
H379        H  0.73939089  0.99508210  0.66533167     0.09100
H380        H  0.82586947  0.03648956  0.67345263     0.10300
Cu381      Cu  0.73749385  0.00088923  0.73732650     0.44200
Cu382      Cu  0.80933489  0.03382485  0.74754693     0.42000
Cu383      Cu  0.75026168  0.03681694  0.80698253     0.43900
N384        N  0.70395680  0.00821950  0.76783009    -0.33400
N385        N  0.70773764  0.02258223  0.79346327    -0.27600
C386        C  0.68053731  0.02724223  0.80597097    -0.03700
C387        C  0.65881797  0.01557343  0.78686373     0.08500
C388        C  0.67464669  0.00349144  0.76307914     0.02300
H389        H  0.67674955  0.03945541  0.82661773     0.10000
H390        H  0.66567345  0.99305165  0.74307637     0.09000
N391        N  0.79566737  0.04661323  0.81336971    -0.34800
N392        N  0.81668278  0.04529012  0.79235843    -0.27000
C393        C  0.84330158  0.05280089  0.80463267    -0.02200
C394        C  0.83878964  0.05908920  0.83459063     0.06400
C395        C  0.80846880  0.05503400  0.83943744     0.04500
H396        H  0.86431923  0.05382448  0.79253927     0.09600
H397        H  0.79650958  0.05810051  0.86031859     0.08400
N398        N  0.50761703  0.20747406  0.73487798    -0.26000
N399        N  0.52348580  0.20462825  0.75975994    -0.33800
C400        C  0.52870670  0.17546821  0.76515515     0.02400
C401        C  0.51540978  0.15874968  0.74264757     0.08400
C402        C  0.50252614  0.17977660  0.72352700    -0.04700
H403        H  0.54016454  0.16717260  0.78488815     0.09100
H404        H  0.48903251  0.17518668  0.70385261     0.10300
Cu405      Cu  0.53172982  0.23896346  0.78934146     0.44200
Cu406      Cu  0.49125896  0.24936140  0.72108875     0.42000
Cu407      Cu  0.49412141  0.30882770  0.77979786     0.43900
N408        N  0.52440264  0.26822650  0.82414657    -0.33400
N409        N  0.50988582  0.29398932  0.82143768    -0.27600
C410        C  0.50518023  0.30536947  0.84911233    -0.03700
C411        C  0.51683107  0.28537022  0.87002104     0.08500
C412        C  0.52902601  0.26224099  0.85324197     0.02300
H413        H  0.49272499  0.32574964  0.85375549     0.10000
H414        H  0.53937087  0.24181848  0.86142979     0.09000
N415        N  0.47968815  0.31548457  0.73559923    -0.34800
N416        N  0.47850830  0.29424294  0.71472057    -0.27000
C417        C  0.46845574  0.30649756  0.68894949    -0.02200
C418        C  0.46311628  0.33671494  0.69382351     0.06400
C419        C  0.47042998  0.34169642  0.72353476     0.04500
H420        H  0.46549572  0.29431659  0.66813810     0.09600
H421        H  0.46929777  0.36284580  0.73550076     0.08400
O422        O  0.29471793  0.55697685  0.01043945    -0.71600
O423        O  0.29579880  0.46650344  0.01155504    -0.72600
O424        O  0.29104112  0.51099537  0.96633850    -0.61200
O425        O  0.30091086  0.51283123  0.05565879    -0.69600
O426        O  0.25142289  0.51217827  0.06147389    -0.69200
O427        O  0.24145082  0.51070150  0.97131907    -0.60400
O428        O  0.24626575  0.46619549  0.01707529    -0.72900
O429        O  0.24511667  0.55664729  0.01545515    -0.71700
Cu430      Cu  0.29730922  0.51181068  0.01084208     1.04600
Cu431      Cu  0.24430398  0.51139117  0.01655933     1.04300
C432        C  0.26974086  0.57104269  0.01258450     0.94600
C433        C  0.27111817  0.45209084  0.01427794     0.93700
C434        C  0.26483581  0.51074998  0.95467910     0.85900
C435        C  0.27794299  0.51286471  0.07269349     0.92100
N436        N  0.23835036  0.70338822  0.00149476    -0.26000
N437        N  0.26426535  0.70067167  0.01568111    -0.33800
C438        C  0.27033797  0.67160083  0.02052490     0.02400
C439        C  0.24716529  0.65463247  0.00884659     0.08400
C440        C  0.22699703  0.67552552  0.99714766    -0.04700
H441        H  0.29067266  0.66359141  0.03115839     0.09100
H442        H  0.20622760  0.67074229  0.98546108     0.10300
Cu443      Cu  0.29335234  0.73523582  0.02380926     0.44200
Cu444      Cu  0.22272858  0.74588170  0.98780959     0.42000
Cu445      Cu  0.28169019  0.80602943  0.99044523     0.43900
N446        N  0.32759829  0.76519185  0.01795796    -0.33400
N447        N  0.32435455  0.79148960  0.00468124    -0.27600
C448        C  0.35188806  0.80377646  0.00122847    -0.03700
C449        C  0.37321232  0.78384862  0.01255182     0.08500
C450        C  0.35676451  0.75976169  0.02309105     0.02300
H451        H  0.35620413  0.82499864  0.99024349     0.10000
H452        H  0.36520379  0.73920611  0.03292873     0.09000
N453        N  0.23622383  0.81293988  0.97929585    -0.34800
N454        N  0.21533118  0.79168526  0.97829681    -0.27000
C455        C  0.18889091  0.80439918  0.97045836    -0.02200
C456        C  0.19326341  0.83493087  0.96640335     0.06400
C457        C  0.22345978  0.83953567  0.97212686     0.04500
H458        H  0.16801614  0.79225159  0.96779700     0.09600
H459        H  0.23536945  0.86068911  0.97103732     0.08400
O460        O  0.00629798  0.46622422  0.23496272    -0.71600
O461        O  0.00948050  0.55675604  0.23570520    -0.72600
O462        O  0.05307629  0.50961209  0.23688716    -0.61200
O463        O  0.96285464  0.51343574  0.23482905    -0.69600
O464        O  0.96198544  0.51298429  0.28460416    -0.69200
O465        O  0.05189713  0.50959886  0.28665524    -0.60400
O466        O  0.00863428  0.55619315  0.28548137    -0.72900
O467        O  0.00513494  0.46616279  0.28472813    -0.71700
Cu468      Cu  0.00797726  0.51150332  0.23381480     1.04600
Cu469      Cu  0.00688623  0.51120337  0.28706739     1.04300
C470        C  0.00513159  0.45197718  0.25979171     0.94600
C471        C  0.00948399  0.57067860  0.26078537     0.93700
C472        C  0.06667629  0.50907558  0.26216296     0.85900
C473        C  0.94825029  0.51396433  0.25947371     0.92100
N474        N  0.00235935  0.70386802  0.23410897    -0.26000
N475        N  0.01588937  0.70011773  0.26019455    -0.33800
C476        C  0.02048683  0.67079210  0.26513103     0.02400
C477        C  0.00922276  0.65485049  0.24100347     0.08400
C478        C  0.99812918  0.67656230  0.22150615    -0.04700
H479        H  0.03039000  0.66190781  0.28542832     0.09100
H480        H  0.98669573  0.67270016  0.20042844     0.10300
Cu481      Cu  0.02279594  0.73372808  0.29081516     0.44200
Cu482      Cu  0.98885341  0.74664502  0.21998836     0.42000
Cu483      Cu  0.99116832  0.80596842  0.27962709     0.43900
N484        N  0.01631866  0.76356326  0.32519056    -0.33400
N485        N  0.00389452  0.79032577  0.32197651    -0.27600
C486        C  0.99974116  0.80238509  0.34946581    -0.03700
C487        C  0.00966575  0.78182461  0.37073561     0.08500
C488        C  0.02019463  0.75761897  0.35436482     0.02300
H489        H  0.98913901  0.82387096  0.35371960     0.10000
H490        H  0.02917072  0.73667491  0.36282335     0.09000
N491        N  0.98055036  0.81338036  0.23448844    -0.34800
N492        N  0.97954466  0.79234235  0.21338073    -0.27000
C493        C  0.97200870  0.80531314  0.18711088    -0.02200
C494        C  0.96820430  0.83577684  0.19188888     0.06400
C495        C  0.97370828  0.84014476  0.22206510     0.04500
H496        H  0.96947178  0.79339401  0.16609490     0.09600
H497        H  0.97273479  0.86121842  0.23417768     0.08400
N498        N  0.27844044  0.51526200  0.20478078    -0.26000
N499        N  0.25439326  0.49793225  0.20531194    -0.33800
C500        C  0.24565945  0.49159509  0.17724677     0.02400
C501        C  0.26515726  0.50525623  0.15767384     0.08400
C502        C  0.28594537  0.52007790  0.17581228    -0.04700
H503        H  0.22546910  0.47933214  0.17151818     0.09100
H504        H  0.30395238  0.53463304  0.16854778     0.10300
Cu505      Cu  0.22965389  0.48956602  0.24292978     0.44200
Cu506      Cu  0.29573015  0.53361221  0.24470784     0.42000
Cu507      Cu  0.23974153  0.53547795  0.30691242     0.43900
N508        N  0.19533806  0.49945063  0.27165507    -0.33400
N509        N  0.19790577  0.51764334  0.29492186    -0.27600
C510        C  0.17008966  0.52382345  0.30530837    -0.03700
C511        C  0.14933807  0.50922955  0.28710431     0.08500
C512        C  0.16629263  0.49382868  0.26624809     0.02300
H513        H  0.16522985  0.53929675  0.32340421     0.10000
H514        H  0.15822366  0.48085038  0.24736309     0.09000
N515        N  0.28495215  0.54800208  0.31100775    -0.34800
N516        N  0.30494997  0.54731300  0.28898038    -0.27000
C517        C  0.33185558  0.55595778  0.30000425    -0.02200
C518        C  0.32863384  0.56234546  0.33020597     0.06400
C519        C  0.29870310  0.55708758  0.33641703     0.04500
H520        H  0.35232116  0.55720572  0.28702641     0.09600
H521        H  0.28773542  0.55937986  0.35792889     0.08400
O522        O  0.51630517  0.23786867  0.96747030    -0.71600
O523        O  0.51643680  0.23733868  0.05747002    -0.72600
O524        O  0.47114316  0.23672526  0.01286380    -0.61200
O525        O  0.56147499  0.23744259  0.01238607    -0.69600
O526        O  0.56105889  0.28735460  0.01308692    -0.69200
O527        O  0.47082261  0.28664095  0.01278456    -0.60400
O528        O  0.51595220  0.28725716  0.05796793    -0.72900
O529        O  0.51595984  0.28777859  0.96771227    -0.71700
Cu530      Cu  0.51634995  0.23561473  0.01250689     1.04600
Cu531      Cu  0.51592312  0.28901505  0.01287715     1.04300
C532        C  0.51633295  0.26288080  0.95338894     0.94600
C533        C  0.51609195  0.26217827  0.07189472     0.93700
C534        C  0.45676694  0.26159899  0.01302712     0.85900
C535        C  0.57547819  0.26247677  0.01286156     0.92100
N536        N  0.79381639  0.32101228  0.99938031    -0.26000
N537        N  0.76762934  0.32417853  0.01282801    -0.33800
C538        C  0.76172128  0.35340994  0.01706964     0.02400
C539        C  0.78540873  0.36995357  0.00585639     0.08400
C540        C  0.80558998  0.34865166  0.99498904    -0.04700
H541        H  0.74128597  0.36179556  0.02715192     0.09100
H542        H  0.82673441  0.35299733  0.98390821     0.10300
Cu543      Cu  0.73887296  0.28943412  0.02145714     0.44200
Cu544      Cu  0.80903769  0.27822475  0.98659849     0.42000
Cu545      Cu  0.74968839  0.21814844  0.98771843     0.43900
N546        N  0.70491522  0.25887084  0.01693068    -0.33400
N547        N  0.70773022  0.23269302  0.00324594    -0.27600
C548        C  0.68008583  0.22065094  0.99989319    -0.03700
C549        C  0.65915604  0.24064752  0.01167439     0.08500
C550        C  0.67589920  0.26440863  0.02252563     0.02300
H551        H  0.67540502  0.19978279  0.98831452     0.10000
H552        H  0.66770903  0.28503940  0.03244466     0.09000
N553        N  0.79499044  0.21143463  0.97667765    -0.34800
N554        N  0.81599462  0.23259320  0.97655707    -0.27000
C555        C  0.84245659  0.21994731  0.96892452    -0.02200
C556        C  0.83794974  0.18959880  0.96403682     0.06400
C557        C  0.80768959  0.18495227  0.96906115     0.04500
H558        H  0.86343112  0.23203317  0.96696713     0.09600
H559        H  0.79572150  0.16386805  0.96730309     0.08400
O560        O  0.51567733  0.96715360  0.28912260    -0.71600
O561        O  0.51455924  0.05785627  0.28997412    -0.72600
O562        O  0.47013189  0.01182060  0.28968359    -0.61200
O563        O  0.56011963  0.01308107  0.28861056    -0.69600
O564        O  0.55973904  0.01297681  0.23882375    -0.69200
O565        O  0.46935842  0.01229012  0.23990418    -0.60400
O566        O  0.51392488  0.05772600  0.24019817    -0.72900
O567        O  0.51516471  0.96754313  0.23934818    -0.71700
Cu568      Cu  0.51514908  0.01246348  0.29109238     1.04600
Cu569      Cu  0.51451739  0.01265966  0.23783566     1.04300
C570        C  0.51567860  0.95311400  0.26409723     0.94600
C571        C  0.51398268  0.07202783  0.26507095     0.93700
C572        C  0.45555132  0.01185261  0.26498616     0.85900
C573        C  0.57412599  0.01315724  0.26363300     0.92100
N574        N  0.79226629  0.00448974  0.32350426    -0.26000
N575        N  0.76604626  0.01813245  0.32597676    -0.33800
C576        C  0.75978618  0.02290881  0.35495547     0.02400
C577        C  0.78322533  0.01173042  0.37197726     0.08400
C578        C  0.80367859  0.00046205  0.35129074    -0.04700
H579        H  0.73909885  0.03288690  0.36286368     0.09100
H580        H  0.82457310  0.98900039  0.35616155     0.10300
Cu581      Cu  0.73712697  0.02483536  0.29090120     0.44200
Cu582      Cu  0.80781576  0.98998861  0.28166849     0.42000
Cu583      Cu  0.74872845  0.98741474  0.22163767     0.43900
N584        N  0.70331293  0.01774222  0.26060386    -0.33400
N585        N  0.70646685  0.00284574  0.23518981    -0.27600
C586        C  0.67895666  0.99868976  0.22304209    -0.03700
C587        C  0.65775127  0.01124287  0.24219252     0.08500
C588        C  0.67419913  0.02330809  0.26556336     0.02300
H589        H  0.67458554  0.98622747  0.20265246     0.10000
H590        H  0.66576404  0.03430102  0.28548561     0.09000
N591        N  0.79423163  0.97705440  0.21561678    -0.34800
N592        N  0.81518769  0.97814224  0.23679932    -0.27000
C593        C  0.84187020  0.97066521  0.22460926    -0.02200
C594        C  0.83750197  0.96462906  0.19452645     0.06400
C595        C  0.80716329  0.96884420  0.18955346     0.04500
H596        H  0.86289311  0.96972993  0.23679034     0.09600
H597        H  0.79531402  0.96623220  0.16850808     0.08400
N598        N  0.52171393  0.20537875  0.29229995    -0.26000
N599        N  0.50847183  0.20165898  0.26606193    -0.33800
C600        C  0.50375805  0.17235430  0.26108510     0.02400
C601        C  0.51465127  0.15634312  0.28533213     0.08400
C602        C  0.52563219  0.17805409  0.30496018    -0.04700
H603        H  0.49404363  0.16352087  0.24066635     0.09100
H604        H  0.53681096  0.17415760  0.32616432     0.10300
Cu605      Cu  0.50207033  0.23528382  0.23535706     0.44200
Cu606      Cu  0.53531488  0.24820657  0.30635484     0.42000
Cu607      Cu  0.53313811  0.30762034  0.24662692     0.43900
N608        N  0.50843650  0.26511316  0.20100558    -0.33400
N609        N  0.52061905  0.29194352  0.20430226    -0.27600
C610        C  0.52484151  0.30399337  0.17686900    -0.03700
C611        C  0.51522104  0.28335340  0.15553014     0.08500
C612        C  0.50477476  0.25911824  0.17180033     0.02300
H613        H  0.53535424  0.32549672  0.17271016     0.10000
H614        H  0.49604392  0.23811342  0.16324758     0.09000
N615        N  0.54394805  0.31490185  0.29165964    -0.34800
N616        N  0.54494711  0.29390135  0.31275525    -0.27000
C617        C  0.55290639  0.30685884  0.33892221    -0.02200
C618        C  0.55698478  0.33723577  0.33406619     0.06400
C619        C  0.55119994  0.34160778  0.30397621     0.04500
H620        H  0.55563521  0.29497313  0.35990360     0.09600
H621        H  0.55236064  0.36261035  0.29182269     0.08400
O622        O  0.23986327  0.05822082  0.51361249    -0.71600
O623        O  0.23891966  0.96805743  0.51450010    -0.72600
O624        O  0.23918119  0.01358847  0.55921738    -0.61200
O625        O  0.23903960  0.01274192  0.46887678    -0.69600
O626        O  0.28891222  0.01219012  0.46916629    -0.69200
O627        O  0.28905325  0.01309956  0.55889862    -0.60400
O628        O  0.28877081  0.96718700  0.51423574    -0.72900
O629        O  0.28972546  0.05814726  0.51393562    -0.71700
Cu630      Cu  0.23751800  0.01317789  0.51404014     1.04600
Cu631      Cu  0.29086175  0.01263512  0.51404751     1.04300
C632        C  0.26477827  0.07243687  0.51377706     0.94600
C633        C  0.26360514  0.95336513  0.51449303     0.93700
C634        C  0.26424990  0.01358166  0.57322914     0.85900
C635        C  0.26403879  0.01220157  0.45485101     0.92100
N636        N  0.32339679  0.00724118  0.79359931    -0.26000
N637        N  0.32687586  0.02043109  0.76734616    -0.33800
C638        C  0.35605514  0.02573788  0.76251165     0.02400
C639        C  0.37219128  0.01527377  0.78686612     0.08400
C640        C  0.35072965  0.00396107  0.80640534    -0.04700
H641        H  0.36474911  0.03547599  0.74210146     0.09100
H642        H  0.35483002  0.99286343  0.82759333     0.10300
Cu643      Cu  0.29325364  0.02589085  0.73643423     0.44200
Cu644      Cu  0.28109309  0.99231288  0.80752832     0.42000
Cu645      Cu  0.22165954  0.99296081  0.74802412     0.43900
N646        N  0.26294913  0.01963451  0.70240240    -0.33400
N647        N  0.23638461  0.00696823  0.70578930    -0.27600
C648        C  0.22386791  0.00330576  0.67842229    -0.03700
C649        C  0.24392475  0.01377339  0.65703152     0.08500
C650        C  0.26830917  0.02413872  0.67322268     0.02300
H651        H  0.20248086  0.99254187  0.67429008     0.10000
H652        H  0.28900979  0.03338106  0.66460372     0.09000
N653        N  0.21499595  0.98046759  0.79278696    -0.34800
N654        N  0.23607256  0.98014271  0.81386924    -0.27000
C655        C  0.22366693  0.97101757  0.83986815    -0.02200
C656        C  0.19353215  0.96540637  0.83494864     0.06400
C657        C  0.18877865  0.97156663  0.80495578     0.04500
H658        H  0.23572997  0.96870467  0.86082402     0.09600
H659        H  0.16779069  0.96975032  0.79281862     0.08400
O660        O  0.01130991  0.28868952  0.55478892    -0.71600
O661        O  0.01092173  0.28872121  0.46481670    -0.72600
O662        O  0.96582855  0.28979727  0.50974200    -0.61200
O663        O  0.05645776  0.28870614  0.50994601    -0.69600
O664        O  0.05591442  0.23881134  0.50956489    -0.69200
O665        O  0.96548471  0.23989485  0.50994112    -0.60400
O666        O  0.01051734  0.23880388  0.46467184    -0.72900
O667        O  0.01077828  0.23877420  0.55480483    -0.71700
Cu668      Cu  0.01115393  0.29071314  0.50980845     1.04600
Cu669      Cu  0.01065899  0.23732455  0.50972686     1.04300
C670        C  0.01115544  0.26374544  0.56897627     0.94600
C671        C  0.01054048  0.26377584  0.45056926     0.93700
C672        C  0.95140886  0.26498440  0.50995535     0.85900
C673        C  0.07044637  0.26359530  0.50982878     0.92100
N674        N  0.00288538  0.32152193  0.78611095    -0.26000
N675        N  0.01797277  0.32412731  0.76080382    -0.33800
C676        C  0.02267252  0.35324801  0.75480801     0.02400
C677        C  0.00994341  0.37017314  0.77746979     0.08400
C678        C  0.99781955  0.34932792  0.79718409    -0.04700
H679        H  0.03364164  0.36132592  0.73477195     0.09100
H680        H  0.98512823  0.35408994  0.81730454     0.10300
Cu681      Cu  0.02647620  0.28908875  0.73223139     0.44200
Cu682      Cu  0.98813805  0.27957737  0.80113735     0.42000
Cu683      Cu  0.99009367  0.21901450  0.74315433     0.43900
N684        N  0.01894028  0.25931744  0.69801048    -0.33400
N685        N  0.00455507  0.23358153  0.70106370    -0.27600
C686        C  0.99952193  0.22199037  0.67351196    -0.03700
C687        C  0.01090588  0.24183145  0.65237377     0.08500
C688        C  0.02322953  0.26506165  0.66887300     0.02300
H689        H  0.98717963  0.20151423  0.66912293     0.10000
H690        H  0.03349801  0.28539337  0.66049930     0.09000
N691        N  0.97829354  0.21285303  0.78811530    -0.34800
N692        N  0.97745824  0.23442138  0.80868114    -0.27000
C693        C  0.96923698  0.22233048  0.83510639    -0.02200
C694        C  0.96476077  0.19189074  0.83098894     0.06400
C695        C  0.97064933  0.18659043  0.80104928     0.04500
H696        H  0.96683785  0.23480405  0.85581177     0.09600
H697        H  0.96955241  0.16521636  0.78948535     0.08400
N698        N  0.29152452  0.20557582  0.52652090    -0.26000
N699        N  0.26563799  0.20233778  0.51243408    -0.33800
C700        C  0.26076587  0.17318699  0.50669634     0.02400
C701        C  0.28474016  0.15676576  0.51773578     0.08400
C702        C  0.30407115  0.17809015  0.52995481    -0.04700
H703        H  0.24064781  0.16471722  0.49604266     0.09100
H704        H  0.32503159  0.17380033  0.54150474     0.10300
Cu705      Cu  0.23538351  0.23646041  0.50571100     0.44200
Cu706      Cu  0.30528980  0.24809022  0.54144358     0.42000
Cu707      Cu  0.24489097  0.30747052  0.54037377     0.43900
N708        N  0.20058352  0.26622345  0.51087407    -0.33400
N709        N  0.20299026  0.29243892  0.52457214    -0.27600
C710        C  0.17518053  0.30441211  0.52719712    -0.03700
C711        C  0.15453880  0.28438378  0.51488896     0.08500
C712        C  0.17167824  0.26059211  0.50461171     0.02300
H713        H  0.17018136  0.32545765  0.53832318     0.10000
H714        H  0.16383584  0.24005704  0.49424804     0.09000
N715        N  0.29026281  0.31466774  0.55162348    -0.34800
N716        N  0.31151635  0.29368329  0.55188201    -0.27000
C717        C  0.33790176  0.30656937  0.55934427    -0.02200
C718        C  0.33314489  0.33692660  0.56396356     0.06400
C719        C  0.30277879  0.34130957  0.55897062     0.04500
H720        H  0.35904184  0.29466904  0.56116317     0.09600
H721        H  0.29065109  0.36236009  0.56042470     0.08400
N722        N  0.01391452  0.31931248  0.23096369    -0.26000
N723        N  0.99969683  0.32238149  0.25673557    -0.33800
C724        C  0.99420562  0.35153426  0.26195683     0.02400
C725        C  0.00560995  0.36806283  0.23837608     0.08400
C726        C  0.01768726  0.34687312  0.21887438    -0.04700
H727        H  0.98385909  0.35994954  0.28221832     0.09100
H728        H  0.02970465  0.35130808  0.19829459     0.10300
Cu729      Cu  0.99377653  0.28836448  0.28706414     0.44200
Cu730      Cu  0.02963811  0.27725443  0.21680279     0.42000
Cu731      Cu  0.03065007  0.21850082  0.27656791     0.43900
N732        N  0.00201086  0.25915150  0.32160406    -0.33400
N733        N  0.01640692  0.23336835  0.31857167    -0.27600
C734        C  0.02145105  0.22181529  0.34609462    -0.03700
C735        C  0.01005552  0.24172493  0.36722039     0.08500
C736        C  0.99771762  0.26497173  0.35075143     0.02300
H737        H  0.03376204  0.20128793  0.35046304     0.10000
H738        H  0.98732533  0.28528194  0.35916681     0.09000
N739        N  0.04233655  0.21140282  0.23180076    -0.34800
N740        N  0.04209315  0.23222775  0.21053021    -0.27000
C741        C  0.05124707  0.21960943  0.18460214    -0.02200
C742        C  0.05746836  0.18963045  0.18984177     0.06400
C743        C  0.05161799  0.18514870  0.21987510     0.04500
H744        H  0.05345597  0.23148269  0.16356709     0.09600
H745        H  0.05419153  0.16441077  0.23227849     0.08400
N746        N  0.32289630  0.01977623  0.23643830    -0.26000
N747        N  0.32610847  0.00591238  0.26238804    -0.33800
C748        C  0.35531885  0.00128409  0.26794250     0.02400
C749        C  0.37167573  0.01282220  0.24431925     0.08400
C750        C  0.35038514  0.02412779  0.22450493    -0.04700
H751        H  0.36384003  0.99120627  0.28830784     0.09100
H752        H  0.35464791  0.03589048  0.20373240     0.10300
Cu753      Cu  0.29177978  0.99875743  0.29196838     0.44200
Cu754      Cu  0.28072233  0.03432824  0.22186154     0.42000
Cu755      Cu  0.22072719  0.03355244  0.28035064     0.43900
N756        N  0.26144323  0.00531913  0.32577553    -0.33400
N757        N  0.23525206  0.01886696  0.32243523    -0.27600
C758        C  0.22309170  0.02312108  0.34982666    -0.03700
C759        C  0.24300693  0.01211279  0.37117676     0.08500
C760        C  0.26690579  0.00080366  0.35494981     0.02300
H761        H  0.20214526  0.03474628  0.35399599     0.10000
H762        H  0.28746242  0.99108248  0.36353737     0.09000
N763        N  0.21464097  0.04657955  0.23569925    -0.34800
N764        N  0.23596571  0.04684805  0.21496075    -0.27000
C765        C  0.22399166  0.05628078  0.18884203    -0.02200
C766        C  0.19388991  0.06218868  0.19335493     0.06400
C767        C  0.18865509  0.05584861  0.22318813     0.04500
H768        H  0.23631725  0.05854659  0.16808551     0.09600
H769        H  0.16750239  0.05771253  0.23495682     0.08400
N770        N  0.23984251  0.31988479  0.02535970    -0.26000
N771        N  0.26496566  0.32205286  0.00985396    -0.33800
C772        C  0.27118146  0.35105332  0.00462993     0.02400
C773        C  0.24886487  0.36840745  0.01746226     0.08400
C774        C  0.22911177  0.34789393  0.03017402    -0.04700
H775        H  0.29117379  0.35876633  0.99328039     0.09100
H776        H  0.20921320  0.35304201  0.04309686     0.10300
Cu777      Cu  0.29306143  0.28655874  0.00160837     0.44200
Cu778      Cu  0.22463484  0.27808057  0.04081681     0.42000
Cu779      Cu  0.28230130  0.21703425  0.03940235     0.43900
N780        N  0.32730509  0.25683818  0.00932955    -0.33400
N781        N  0.32451892  0.23142464  0.02431773    -0.27600
C782        C  0.35227644  0.21994138  0.02894833    -0.03700
C783        C  0.37321886  0.23952296  0.01662154     0.08500
C784        C  0.35637409  0.26246030  0.00423211     0.02300
H785        H  0.35696804  0.19965520  0.04147757     0.10000
H786        H  0.36447867  0.28250765  0.99323035     0.09000
N787        N  0.23691278  0.21109512  0.05077788    -0.34800
N788        N  0.21647721  0.23284562  0.05145647    -0.27000
C789        C  0.18974363  0.22089080  0.05914510    -0.02200
C790        C  0.19344370  0.19031543  0.06338236     0.06400
C791        C  0.22355025  0.18487100  0.05797386     0.04500
H792        H  0.16907571  0.23353889  0.06127866     0.09600
H793        H  0.23492387  0.16338221  0.05904128     0.08400
C794        C  0.43545046  0.43663829  0.59279790     0.87800
C795        C  0.41435410  0.45516667  0.61318826    -0.52400
C796        C  0.39572301  0.43816101  0.63054202     0.10700
C797        C  0.39965348  0.40415029  0.62629935     0.21700
C798        C  0.45191472  0.41511299  0.61476603    -0.53100
C799        C  0.43310065  0.39832465  0.63211431     0.10800
C800        C  0.41414347  0.41569685  0.57496101    -0.52700
C801        C  0.39549370  0.39882491  0.59254779     0.11400
H802        H  0.41418309  0.47958413  0.61375662     0.15900
H803        H  0.38447954  0.39041756  0.64052849     0.01700
H804        H  0.47600510  0.41274575  0.61687451     0.16200
H805        H  0.41387236  0.41441929  0.55064148     0.16000
C806        C  0.58826083  0.43960793  0.43210018     0.87800
C807        C  0.57018259  0.41844067  0.41136785    -0.52400
C808        C  0.58755388  0.39965180  0.39444707     0.10700
C809        C  0.62141795  0.40351683  0.39938186     0.21700
C810        C  0.60881304  0.41831911  0.45043031    -0.53100
C811        C  0.62603814  0.39950624  0.43324442     0.10800
C812        C  0.61017046  0.45591215  0.41056450    -0.52700
C813        C  0.62725743  0.43695033  0.39359182     0.11400
H814        H  0.54580560  0.41834131  0.41025709     0.15900
H815        H  0.63542615  0.38822601  0.38545270     0.01700
H816        H  0.60956196  0.41816178  0.47477130     0.16200
H817        H  0.61243162  0.48000467  0.40830094     0.16000
C818        C  0.58388611  0.59271163  0.59174507     0.87800
C819        C  0.60512436  0.57485961  0.61270469    -0.52400
C820        C  0.62403393  0.59248026  0.62931270     0.10700
C821        C  0.62018104  0.62627881  0.62384479     0.21700
C822        C  0.56774425  0.61510974  0.61306122    -0.53100
C823        C  0.58683650  0.63243813  0.62968591     0.10800
C824        C  0.60514734  0.61283033  0.57306647    -0.52700
C825        C  0.62405433  0.63025058  0.58993044     0.11400
H826        H  0.60519688  0.55048480  0.61416125     0.15900
H827        H  0.63555429  0.64048709  0.63748409     0.01700
H828        H  0.54368270  0.61742840  0.61546428     0.16200
H829        H  0.60522950  0.61313926  0.54871647     0.16000
C830        C  0.43169053  0.58752438  0.42951154     0.87800
C831        C  0.45005690  0.60852620  0.40904424    -0.52400
C832        C  0.43300251  0.62752112  0.39205251     0.10700
C833        C  0.39903127  0.62389623  0.39654845     0.21700
C834        C  0.41120716  0.60895752  0.44765902    -0.53100
C835        C  0.39425596  0.62789368  0.43038564     0.10800
C836        C  0.40976223  0.57135302  0.40767814    -0.52700
C837        C  0.39282751  0.59047662  0.39057717     0.11400
H838        H  0.47444913  0.60858227  0.40837148     0.15900
H839        H  0.38524981  0.63937743  0.38259629     0.01700
H840        H  0.41034058  0.60915601  0.47199615     0.16200
H841        H  0.40730266  0.54724931  0.40554135     0.16000
C842        C  0.50930890  0.51413062  0.51153951    -0.01200
C843        C  0.45157680  0.53620352  0.44972481    -0.12000
C844        C  0.45196503  0.56792599  0.44976468     0.10100
C845        C  0.47244635  0.58211566  0.46926351    -0.12000
C846        C  0.49116312  0.56552995  0.48849383    -0.12000
C847        C  0.48962524  0.53377162  0.48985305     0.10100
C848        C  0.47025259  0.51960139  0.46903555    -0.12000
H849        H  0.43697230  0.52366328  0.43506435     0.14100
H850        H  0.47410333  0.60640990  0.46949603     0.14100
H851        H  0.50697412  0.57810608  0.50187199     0.14100
H852        H  0.46905887  0.49529196  0.46826059     0.14100
C853        C  0.57786054  0.55119629  0.55280960    -0.12000
C854        C  0.56399725  0.57209772  0.57205887     0.10100
C855        C  0.53226580  0.57271489  0.57226650    -0.12000
C856        C  0.51537446  0.55388604  0.55334924    -0.12000
C857        C  0.52922246  0.53404574  0.53280285     0.10100
C858        C  0.56098656  0.53229643  0.53400481    -0.12000
H859        H  0.60212140  0.54936511  0.55242012     0.14100
H860        H  0.51988685  0.58763248  0.58672301     0.14100
H861        H  0.49110078  0.55530441  0.55423318     0.14100
H862        H  0.57337474  0.51616865  0.52082575     0.14100
C863        C  0.54738541  0.44540099  0.47154127    -0.12000
C864        C  0.56773850  0.45936614  0.45189366     0.10100
C865        C  0.56756556  0.49109579  0.45099562    -0.12000
C866        C  0.54850756  0.50794004  0.46960745    -0.12000
C867        C  0.52916670  0.49407105  0.49048990     0.10100
C868        C  0.52819530  0.46225044  0.49004677    -0.12000
H869        H  0.54615789  0.42109674  0.47240753     0.14100
H870        H  0.58192672  0.50354198  0.43614205     0.14100
H871        H  0.54937829  0.53223669  0.46823915     0.14100
H872        H  0.51252992  0.44981690  0.50362529     0.14100
C873        C  0.44092283  0.47674194  0.55241909    -0.12000
C874        C  0.45502269  0.45675494  0.57246980     0.10100
C875        C  0.48672850  0.45689836  0.57323874    -0.12000
C876        C  0.50341492  0.47556875  0.55417091    -0.12000
C877        C  0.48941918  0.49456782  0.53295418     0.10100
C878        C  0.45761756  0.49557927  0.53348576    -0.12000
H879        H  0.41663454  0.47799202  0.55159542     0.14100
H880        H  0.49927376  0.44281016  0.58836305     0.14100
H881        H  0.52769595  0.47469559  0.55550955     0.14100
H882        H  0.44507057  0.51104083  0.51968163     0.14100
C883        C  0.35524429  0.35922358  0.57261732    -0.11900
C884        C  0.37373174  0.37751127  0.58077368    -0.13500
C885        C  0.12124892  0.28676386  0.51477383    -0.15100
C886        C  0.10364962  0.26257899  0.50975466    -0.30300
H887        H  0.11112647  0.30841990  0.51979434     0.13900
H888        H  0.11383911  0.24069043  0.50620913     0.14500
C889        C  0.00947463  0.26443634  0.41756764    -0.15100
C890        C  0.01247006  0.23979016  0.40024772    -0.30300
H891        H  0.00624882  0.28629202  0.40725072     0.13900
H892        H  0.01730778  0.21809604  0.41032659     0.14500
C893        C  0.00849092  0.23989411  0.61931378    -0.15100
C894        C  0.01207047  0.26441835  0.60199398    -0.30300
H895        H  0.00327209  0.21829238  0.60920269     0.13900
H896        H  0.01570868  0.28622036  0.61231516     0.14500
C897        C  0.26381428  0.10561874  0.51344908    -0.15100
C898        C  0.28778220  0.12350790  0.51821157    -0.30300
H899        H  0.24185305  0.11561522  0.50990250     0.13900
H900        H  0.30955262  0.11372472  0.52334937     0.14500
C901        C  0.26493829  0.01099842  0.42186765    -0.15100
C902        C  0.24058280  0.01426248  0.40421289    -0.30300
H903        H  0.28687195  0.00755431  0.41186024     0.13900
H904        H  0.21881330  0.01920909  0.41401597     0.14500
C905        C  0.26537478  0.01462037  0.60621929    -0.15100
C906        C  0.24108460  0.01208457  0.62397577    -0.30300
H907        H  0.28748028  0.01721825  0.61616413     0.13900
H908        H  0.21907822  0.00801369  0.61425037     0.14500
C909        C  0.56645775  0.35952870  0.35563339    -0.11900
C910        C  0.57532190  0.37800294  0.37348303    -0.13500
C911        C  0.51631524  0.12314409  0.28827714    -0.15100
C912        C  0.51289084  0.10516438  0.26415194    -0.30300
H913        H  0.52111404  0.11351153  0.31013271     0.13900
H914        H  0.50957841  0.11505142  0.24217181     0.14500
C915        C  0.42251091  0.01088037  0.26609722    -0.15100
C916        C  0.40477084  0.01465173  0.24189910    -0.30300
H917        H  0.41254754  0.00728116  0.28798104     0.13900
H918        H  0.41456724  0.01978105  0.22022036     0.14500
C919        C  0.60718862  0.01391948  0.26419432    -0.15100
C920        C  0.62459349  0.00981139  0.23984394    -0.30300
H921        H  0.61750285  0.01746345  0.28597138     0.13900
H922        H  0.61451068  0.00457374  0.21827270     0.14500
C923        C  0.51523528  0.26119996  0.10489377    -0.15100
C924        C  0.51742057  0.28573109  0.12250144    -0.30300
H925        H  0.51276292  0.23914348  0.11494403     0.13900
H926        H  0.52130881  0.30769920  0.11265314     0.14500
C927        C  0.42364742  0.26206625  0.01301040    -0.15100
C928        C  0.40645062  0.23763624  0.01794145    -0.30300
H929        H  0.41313889  0.28375478  0.00919763     0.13900
H930        H  0.41679869  0.21621257  0.02345313     0.14500
C931        C  0.60856832  0.26322796  0.01365687    -0.15100
C932        C  0.62598244  0.23863595  0.01025050    -0.30300
H933        H  0.61883246  0.28511178  0.01684404     0.13900
H934        H  0.61584923  0.21693082  0.00557288     0.14500
C935        C  0.35169601  0.57195662  0.35111412    -0.11900
C936        C  0.37060387  0.58015000  0.36896142    -0.13500
C937        C  0.09972164  0.50728599  0.26265389    -0.15100
C938        C  0.11623848  0.51207871  0.28756536    -0.30300
H939        H  0.11077166  0.50231266  0.24153984     0.13900
H940        H  0.10545553  0.51898068  0.30829140     0.14500
C941        C  0.00341324  0.41888165  0.26040186    -0.15100
C942        C  0.00727079  0.40126207  0.23610233    -0.30300
H943        H  0.99949363  0.40873230  0.28214776     0.13900
H944        H  0.01271882  0.41120708  0.21456656     0.14500
C945        C  0.00741360  0.62172734  0.23798643    -0.15100
C946        C  0.01084293  0.60373761  0.26202829    -0.30300
H947        H  0.00247099  0.61214953  0.21611799     0.13900
H948        H  0.01416770  0.61353887  0.28407034     0.14500
C949        C  0.28263944  0.51376583  0.10554244    -0.15100
C950        C  0.26096590  0.50590611  0.12478267    -0.30300
H951        H  0.30476179  0.51968775  0.11397272     0.13900
H952        H  0.23943909  0.49834595  0.11608392     0.14500
C953        C  0.27175358  0.41888807  0.01356480    -0.15100
C954        C  0.24747508  0.40167297  0.01907945    -0.30300
H955        H  0.29315563  0.40837815  0.00844492     0.13900
H956        H  0.22636139  0.41208166  0.02551522     0.14500
C957        C  0.27003713  0.60420191  0.01223732    -0.15100
C958        C  0.24535565  0.62134065  0.00805344    -0.30300
H959        H  0.29181530  0.61479251  0.01493733     0.13900
H960        H  0.22378944  0.61089202  0.00350202     0.14500
C961        C  0.44383935  0.37674593  0.65401493    -0.11900
C962        C  0.45262686  0.35857356  0.67223204    -0.17500
C963        C  0.51445824  0.28707020  0.90311321    -0.15100
C964        C  0.51750172  0.26237194  0.92032436    -0.30300
H965        H  0.50951705  0.30869038  0.91333826     0.13900
H966        H  0.52089502  0.24058843  0.90985865     0.14500
C967        C  0.51690219  0.10853446  0.76575798    -0.15100
C968        C  0.51308867  0.12557771  0.74108832    -0.30300
H969        H  0.52071700  0.11920900  0.78732675     0.13900
H970        H  0.50754458  0.11518359  0.71973927     0.14500
C971        C  0.60782898  0.01434997  0.76571501    -0.15100
C972        C  0.62577660  0.01776871  0.78979383    -0.30300
H973        H  0.61764464  0.01079598  0.74374174     0.13900
H974        H  0.61623887  0.02290215  0.81160631     0.14500
C975        C  0.40532040  0.01404304  0.78992441    -0.15100
C976        C  0.42317845  0.01704453  0.76577695    -0.30300
H977        H  0.41501086  0.00985855  0.81189358     0.13900
H978        H  0.41325963  0.01964993  0.74369276     0.14500
C979        C  0.76047146  0.01434868  0.42230665    -0.15100
C980        C  0.78503163  0.01038460  0.40511554    -0.30300
H981        H  0.73868462  0.01768235  0.41187451     0.13900
H982        H  0.80662826  0.00556471  0.41542232     0.14500
C983        C  0.76095177  0.01496823  0.60674097    -0.15100
C984        C  0.78573854  0.01753623  0.62390930    -0.30300
H985        H  0.73909888  0.01242114  0.61715541     0.13900
H986        H  0.80748444  0.02155640  0.61368400     0.14500
C987        C  0.66525406  0.35923503  0.45403529    -0.11900
C988        C  0.64706648  0.37769244  0.44550425    -0.13500
C989        C  0.73776294  0.12521752  0.51043145    -0.15100
C990        C  0.76205572  0.10753717  0.51459763    -0.30300
H991        H  0.71605419  0.11520234  0.50559160     0.13900
H992        H  0.78395305  0.11770065  0.51792875     0.14500
C993        C  0.90080763  0.28919961  0.50727564    -0.15100
C994        C  0.91823827  0.26460103  0.51080961    -0.30300
H995        H  0.91094786  0.31081934  0.50234278     0.13900
H996        H  0.90786198  0.24281427  0.51417965     0.14500
C997        C  0.35591804  0.46037899  0.66906448    -0.11900
C998        C  0.37418766  0.45091487  0.65132383    -0.13500
C999        C  0.28465806  0.50832913  0.90278202    -0.15100
C1000       C  0.26126050  0.51113355  0.92174779    -0.30300
H1001       H  0.30708435  0.50426183  0.91152838     0.13900
H1002       H  0.23866970  0.51391560  0.91298375     0.14500
C1003       C  0.10247609  0.51641050  0.75916766    -0.15100
C1004       C  0.12081364  0.51375927  0.73531135    -0.30300
H1005       H  0.11198135  0.51926054  0.78140431     0.13900
H1006       H  0.11155041  0.50943249  0.71318071     0.14500
C1007       C  0.00802706  0.40335372  0.77925691    -0.15100
C1008       C  0.01276252  0.42079614  0.75504494    -0.30300
H1009       H  0.00199813  0.41350250  0.80058047     0.13900
H1010       H  0.01719632  0.41053704  0.73340665     0.14500
C1011       C  0.00687435  0.60591256  0.75804947    -0.15100
C1012       C  0.01144961  0.62286459  0.78271052    -0.30300
H1013       H  0.00252691  0.61666238  0.73664257     0.13900
H1014       H  0.01750852  0.61229014  0.80381277     0.14500
C1015       C  0.01069657  0.75988575  0.42143183    -0.15100
C1016       C  0.00779330  0.78429184  0.40380038    -0.30300
H1017       H  0.01351629  0.73782925  0.41139644     0.13900
H1018       H  0.00357063  0.80622997  0.41366650     0.14500
C1019       C  0.00965080  0.76174484  0.60605985    -0.15100
C1020       C  0.01341706  0.78630614  0.62339489    -0.30300
H1021       H  0.00586606  0.74003014  0.61644722     0.13900
H1022       H  0.01886719  0.80780712  0.61327535     0.14500
C1023       C  0.35562377  0.66844085  0.45154324    -0.11900
C1024       C  0.37349367  0.64988794  0.44265330    -0.13500
C1025       C  0.10306760  0.76217323  0.51269756    -0.15100
C1026       C  0.12082184  0.73822827  0.50701929    -0.30300
H1027       H  0.11312793  0.78402373  0.51664678     0.13900
H1028       H  0.11090055  0.71664483  0.50141710     0.14500
C1029       C  0.28628951  0.90210798  0.51142395    -0.15100
C1030       C  0.26224851  0.92018601  0.51515168    -0.30300
H1031       H  0.30820846  0.91175393  0.50690428     0.13900
H1032       H  0.24017021  0.91038894  0.51824845     0.14500
C1033       C  0.66456526  0.57257023  0.66846413    -0.11900
C1034       C  0.64586516  0.58069487  0.65044144    -0.13500
C1035       C  0.89973426  0.51482173  0.73298146    -0.15100
C1036       C  0.91767151  0.51032205  0.75691884    -0.30300
H1037       H  0.90937450  0.52042705  0.71135409     0.13900
H1038       H  0.90781097  0.50629740  0.77876705     0.14500
C1039       C  0.74134149  0.51813813  0.90078870    -0.15100
C1040       C  0.76597480  0.51378961  0.91791044    -0.30300
H1041       H  0.71990287  0.52327888  0.91119972     0.13900
H1042       H  0.78764809  0.51016270  0.90740632     0.14500
C1043       C  0.76562399  0.60659468  0.01080973    -0.15100
C1044       C  0.78992498  0.62406097  0.01568326    -0.30300
H1045       H  0.74386450  0.61697257  0.00712361     0.13900
H1046       H  0.81148450  0.61383419  0.02085024     0.14500
C1047       C  0.76381978  0.42103747  0.00933812    -0.15100
C1048       C  0.78796493  0.40321394  0.00493456    -0.30300
H1049       H  0.74186181  0.41101592  0.01256379     0.13900
H1050       H  0.80973795  0.41308363  0.00019452     0.14500
C1051       C  0.62709221  0.78840398  0.01911517    -0.15100
C1052       C  0.60959652  0.76401550  0.01512636    -0.30300
H1053       H  0.61704714  0.81008255  0.02419546     0.13900
H1054       H  0.61987305  0.74215056  0.01166110     0.14500
C1055       C  0.42443863  0.76266178  0.01635667    -0.15100
C1056       C  0.40644761  0.78667497  0.01184254    -0.30300
H1057       H  0.41458597  0.74066114  0.01987753     0.13900
H1058       H  0.41615885  0.80848051  0.00685998     0.14500
C1059       C  0.64862216  0.44759716  0.37160031    -0.11900
C1060       C  0.66635756  0.45652011  0.35314206    -0.13500
C1061       C  0.73967648  0.51018700  0.11966654    -0.15100
C1062       C  0.76446885  0.51416358  0.10277697    -0.30300
H1063       H  0.71837829  0.50470314  0.10909762     0.13900
H1064       H  0.78600302  0.51803302  0.11354012     0.14500
C1065       C  0.91527633  0.51625907  0.25847960    -0.15100
C1066       C  0.89789079  0.51372967  0.28302188    -0.30300
H1067       H  0.90509603  0.51991126  0.23665709     0.13900
H1068       H  0.90790464  0.50858437  0.30464381     0.14500
C1069       C  0.45621707  0.66821077  0.35522339    -0.11900
C1070       C  0.44587230  0.64961087  0.37203835    -0.13500
C1071       C  0.51635935  0.74004646  0.12534821    -0.15100
C1072       C  0.51899798  0.76475357  0.10812611    -0.30300
H1073       H  0.51165585  0.71835523  0.11517339     0.13900
H1074       H  0.52213314  0.78660700  0.11851536     0.14500
C1075       C  0.51338902  0.90238917  0.28743664    -0.15100
C1076       C  0.51686814  0.91998094  0.26312390    -0.30300
H1077       H  0.50819456  0.91236500  0.30905590     0.13900
H1078       H  0.52045530  0.90979824  0.24129117     0.14500
C1079       C  0.57656236  0.65432210  0.65148837    -0.11900
C1080       C  0.56863766  0.67247894  0.67010572    -0.13500
C1081       C  0.51785916  0.90586563  0.74465504    -0.15100
C1082       C  0.51470295  0.92358029  0.76897200    -0.30300
H1083       H  0.52217291  0.91574301  0.72282949     0.13900
H1084       H  0.51183018  0.91357140  0.79095181     0.14500
C1085       C  0.51846306  0.73998480  0.90597004    -0.15100
C1086       C  0.51580845  0.76447495  0.92362707    -0.30300
H1087       H  0.52277789  0.71806345  0.91578469     0.13900
H1088       H  0.51298723  0.78649455  0.91356868     0.14500
C1089       C  0.66456260  0.66878053  0.56882639    -0.11900
C1090       C  0.64592993  0.65088003  0.57735669    -0.13500
C1091       C  0.89998529  0.73792360  0.51569140    -0.15100
C1092       C  0.91778319  0.76229113  0.51304231    -0.30300
H1093       H  0.90982113  0.71588428  0.51942573     0.13900
H1094       H  0.90774831  0.78440511  0.51067403     0.14500
C1095       C  0.73686181  0.90444790  0.51931923    -0.15100
C1096       C  0.76123127  0.92204915  0.51558036    -0.30300
H1097       H  0.71500353  0.91451302  0.52337752     0.13900
H1098       H  0.78320126  0.91182851  0.51291489     0.14500
C1099       C  0.07489805  0.85404714  0.85592765    -0.11900
C1100       C  0.08374101  0.87233516  0.87403367    -0.13500
C1101       C  0.15300199  0.87551904  0.94819009    -0.11900
C1102       C  0.17120897  0.85717027  0.95706310    -0.13500
C1103       C  0.15330501  0.94615843  0.87449188    -0.11900
C1104       C  0.17161974  0.95514557  0.85655778    -0.13500
C1105       C  0.03964779  0.95415070  0.95259157    -0.12000
C1106       C  0.07137444  0.95542195  0.95247968     0.10100
C1107       C  0.08490335  0.97719494  0.97103674    -0.12000
C1108       C  0.06772266  0.99623134  0.98949972    -0.12000
C1109       C  0.03603547  0.99367396  0.99113086     0.10100
C1110       C  0.02249177  0.97311224  0.97111803    -0.12000
H1111       H  0.02742236  0.93849587  0.93880842     0.14100
H1112       H  0.10910606  0.97960924  0.97114636     0.14100
H1113       H  0.07976262  0.01305885  0.00214095     0.14100
H1114       H  0.99825616  0.97107835  0.97050524     0.14100
C1115       C  0.86170701  0.85933365  0.07146207    -0.11900
C1116       C  0.87967564  0.87786250  0.08023125    -0.13500
C1117       C  0.87819428  0.94733911  0.15457354    -0.11900
C1118       C  0.85982645  0.95548268  0.17285579    -0.13500
C1119       C  0.95115024  0.87696157  0.15226828    -0.11900
C1120       C  0.95945283  0.85822650  0.17013964    -0.13500
C1121       C  0.98028387  0.94491290  0.05509772    -0.12000
C1122       C  0.95914197  0.95888768  0.07401431     0.10100
C1123       C  0.95774428  0.99060148  0.07330724    -0.12000
C1124       C  0.97618847  0.00735464  0.05405328    -0.12000
C1125       C  0.99636139  0.99337508  0.03394592     0.10100
C1126       C  0.99881723  0.96168886  0.03590852    -0.12000
H1127       H  0.98260824  0.92066700  0.05528486     0.14100
H1128       H  0.94235034  0.00307340  0.08714666     0.14100
H1129       H  0.97415626  0.03162774  0.05428675     0.14100
H1130       H  0.01523320  0.94936340  0.02305392     0.14100
C1131       C  0.87926710  0.07811606  0.87382126    -0.11900
C1132       C  0.86090701  0.06898918  0.85604579    -0.13500
C1133       C  0.87859199  0.14958364  0.94606315    -0.11900
C1134       C  0.86007750  0.16759334  0.95475808    -0.13500
C1135       C  0.95576188  0.17021095  0.85330043    -0.11900
C1136       C  0.94787492  0.15214081  0.87193808    -0.13500
C1137       C  0.99238268  0.07207370  0.95237380    -0.12000
C1138       C  0.96070407  0.07082768  0.95207948     0.10100
C1139       C  0.94699360  0.04928825  0.97066610    -0.12000
C1140       C  0.96402278  0.03028685  0.98925866    -0.12000
C1141       C  0.99570195  0.03267385  0.99092762     0.10100
C1142       C  0.00939396  0.05307389  0.97094418    -0.12000
H1143       H  0.00464305  0.08768282  0.93864604     0.14100
H1144       H  0.92277783  0.04699079  0.97064047     0.14100
H1145       H  0.95190300  0.01363350  0.00196578     0.14100
H1146       H  0.03363655  0.05501265  0.97046625     0.14100
C1147       C  0.15203517  0.15053612  0.07997348    -0.11900
C1148       C  0.17069811  0.16864648  0.07189644    -0.13500
C1149       C  0.17234667  0.07247466  0.17141147    -0.11900
C1150       C  0.15420866  0.08105850  0.15309161    -0.13500
C1151       C  0.07910726  0.14967807  0.15126056    -0.11900
C1152       C  0.06894336  0.16784357  0.16873209    -0.13500
C1153       C  0.07431936  0.03678328  0.07266158    -0.12000
C1154       C  0.07319970  0.06851137  0.07268679     0.10100
C1155       C  0.05181813  0.08224221  0.05383960    -0.12000
C1156       C  0.03285897  0.06519234  0.03525183    -0.12000
C1157       C  0.03524010  0.03346374  0.03373422     0.10100
C1158       C  0.05550173  0.01975830  0.05394303    -0.12000
H1159       H  0.08964006  0.02447633  0.08675419     0.14100
H1160       H  0.04954500  0.10649237  0.05372927     0.14100
H1161       H  0.01621403  0.07736025  0.02249416     0.14100
H1162       H  0.05736022  0.99548244  0.05460886     0.14100
loop_ 
_geom_bond_atom_site_label_1 
_geom_bond_atom_site_label_2 
_geom_bond_distance 
_geom_bond_site_symmetry_2 
_ccdc_geom_bond_type 
C1            C2   1.552       .  S
C1            C7   1.549       .  S
C1            C5   1.544       .  S
C1         C1154   1.545       .  S
C2            H9   1.081       .  S
C2            C3   1.365       .  D
C3            C4   1.532       .  S
C3         C1150   1.448       .  S
C4            C8   1.534       .  S
C4            C6   1.534       .  S
C4           H10   1.112       .  S
C5           H11   1.086       .  S
C5            C6   1.365       .  D
C6         C1151   1.448       .  S
C7           H12   1.086       .  S
C7            C8   1.370       .  D
C8         C1147   1.455       .  S
C13          C14   1.553       .  S
C13          C19   1.544       .  S
C13          C17   1.548       .  S
C13        C1138   1.545       .  S
C14          H21   1.081       .  S
C14          C15   1.366       .  D
C15          C16   1.532       .  S
C15        C1136   1.449       .  S
C16          C20   1.532       .  S
C16          C18   1.533       .  S
C16          H22   1.112       .  S
C17          H23   1.086       .  S
C17          C18   1.369       .  D
C18        C1133   1.452       .  S
C19          H24   1.086       .  S
C19          C20   1.365       .  D
C20        C1131   1.445       .  S
C25          C26   1.553       .  S
C25          C31   1.548       .  S
C25          C29   1.547       .  S
C25        C1122   1.548       .  S
C26          H33   1.081       .  S
C26          C27   1.365       .  D
C27          C28   1.532       .  S
C27        C1117   1.450       .  S
C28          C32   1.534       .  S
C28          C30   1.533       .  S
C28          H34   1.112       .  S
C29          H35   1.086       .  S
C29          C30   1.367       .  D
C30        C1119   1.450       .  S
C31          H36   1.086       .  S
C31          C32   1.368       .  D
C32        C1116   1.454       .  S
C37          C38   1.553       .  S
C37          C43   1.547       .  S
C37          C41   1.550       .  S
C37        C1106   1.550       .  S
C38          H45   1.081       .  S
C38          C39   1.365       .  D
C39          C40   1.533       .  S
C39        C1100   1.451       .  S
C40          C44   1.535       .  S
C40          C42   1.535       .  S
C40          H46   1.112       .  S
C41          H47   1.086       .  S
C41          C42   1.370       .  D
C42        C1101   1.457       .  S
C43          H48   1.086       .  S
C43          C44   1.367       .  D
C44        C1103   1.452       .  S
C49        C1109   1.571   1_544  S
C49        C1125   1.570   1_445  S
C49        C1141   1.568   1_454  S
C49        C1157   1.568       .  S
N50          N51   1.319       .  A
N50          C54   1.353       .  A
N50         Cu58   2.100       .  S
N51          C52   1.338       .  A
N51         Cu57   2.044       .  S
C52          C53   1.381       .  A
C52          H55   1.081       .  S
C53          C54   1.393       .  A
C53        C1095   1.486       .  S
C54          H56   1.082       .  S
Cu57         N60   2.044       .  S
Cu58         N68   2.103       .  S
Cu59         N61   2.100       .  S
Cu59         N67   2.103       .  S
N60          N61   1.319       .  A
N60          C64   1.339       .  A
N61          C62   1.352       .  A
C62          C63   1.392       .  A
C62          H65   1.082       .  S
C63          C64   1.382       .  A
C63        C1091   1.485       .  S
C64          H66   1.081       .  S
N67          N68   1.329       .  A
N67          C71   1.350       .  A
N68          C69   1.349       .  A
C69          C70   1.382       .  A
C69          H72   1.082       .  S
C70          C71   1.382       .  A
C70        C1089   1.449       .  S
C71          H73   1.082       .  S
N74          N75   1.320       .  A
N74          C78   1.352       .  A
N74         Cu82   2.095       .  S
N75          C76   1.338       .  A
N75         Cu81   2.045       .  S
C76          C77   1.381       .  A
C76          H79   1.081       .  S
C77          C78   1.391       .  A
C77        C1085   1.483       .  S
C78          H80   1.082       .  S
Cu81         N84   2.046       .  S
Cu82         N92   2.098       .  S
Cu83         N85   2.089       .  S
Cu83         N91   2.092       .  S
N84          N85   1.319       .  A
N84          C88   1.339       .  A
N85          C86   1.350       .  A
C86          C87   1.389       .  A
C86          H89   1.082       .  S
C87          C88   1.382       .  A
C87        C1081   1.480       .  S
C88          H90   1.081       .  S
N91          N92   1.327       .  A
N91          C95   1.348       .  A
N92          C93   1.348       .  A
C93          C94   1.381       .  A
C93          H96   1.082       .  S
C94          C95   1.380       .  A
C94        C1080   1.445       .  S
C95          H97   1.082       .  S
N98          N99   1.319       .  A
N98         C102   1.350       .  A
N98        Cu106   2.086       .  S
N99         C100   1.339       .  A
N99        Cu105   2.048       .  S
C100        C101   1.382       .  A
C100        H103   1.081       .  S
C101        C102   1.389       .  A
C101       C1071   1.480       .  S
C102        H104   1.082       .  S
Cu105       N108   2.048       .  S
Cu106       N116   2.088       .  S
Cu107       N109   2.094       .  S
Cu107       N115   2.096       .  S
N108        N109   1.320       .  A
N108        C112   1.340       .  A
N109        C110   1.351       .  A
C110        C111   1.389       .  A
C110        H113   1.082       .  S
C111        C112   1.381       .  A
C111       C1075   1.481       .  S
C112        H114   1.081       .  S
N115        N116   1.327       .  A
N115        C119   1.349       .  A
N116        C117   1.347       .  A
C117        C118   1.379       .  A
C117        H120   1.082       .  S
C118        C119   1.382       .  A
C118       C1069   1.444       .  S
C119        H121   1.082       .  S
N122        N123   1.320       .  A
N122        C126   1.352       .  A
N122       Cu130   2.099       .  S
N123        C124   1.340       .  A
N123       Cu129   2.045       .  S
C124        C125   1.381       .  A
C124        H127   1.081       .  S
C125        C126   1.392       .  A
C125       C1061   1.483       .  S
C126        H128   1.082       .  S
Cu129       N132   2.045       .  S
Cu130       N140   2.101       .  S
Cu131       N133   2.083       .  S
Cu131       N139   2.085       .  S
N132        N133   1.319       .  A
N132        C136   1.339       .  A
N133        C134   1.349       .  A
C134        C135   1.388       .  A
C134        H137   1.082       .  S
C135        C136   1.381       .  A
C135       C1066   1.477       .  S
C136        H138   1.081       .  S
N139        N140   1.327       .  A
N139        C143   1.347       .  A
N140        C141   1.349       .  A
C141        C142   1.382       .  A
C141        H144   1.082       .  S
C142        C143   1.379       .  A
C142       C1060   1.444       .  S
C143        H145   1.082       .  S
O146       Cu154   2.008       .  S
O146        C156   1.278       .  A
O147       Cu154   2.010       .  S
O147        C157   1.278       .  A
O148       Cu154   2.014   1_556  S
O148        C158   1.277       .  A
O149       Cu154   2.012       .  S
O149        C159   1.277       .  A
O150       Cu155   2.009       .  S
O150        C159   1.278       .  A
O151       Cu155   2.008   1_556  S
O151        C158   1.278       .  A
O152       Cu155   2.021       .  S
O152        C157   1.278       .  A
O153       Cu155   2.018       .  S
O153        C156   1.278       .  A
Cu154      Cu155   2.375       .  S
C156       C1052   1.475       .  S
C157       C1055   1.477       .  S
C158       C1086   1.474       .  S
C159       C1072   1.474       .  S
O160       Cu168   2.017   1_556  S
O160        C170   1.279       .  A
O161       Cu168   2.018       .  S
O161        C171   1.279       .  A
O162       Cu168   2.019       .  S
O162        C172   1.278       .  A
O163       Cu168   2.021       .  S
O163        C173   1.278       .  A
O164       Cu169   2.014       .  S
O164        C173   1.279       .  A
O165       Cu169   2.013       .  S
O165        C172   1.279       .  A
O166       Cu169   2.012       .  S
O166        C171   1.277       .  A
O167       Cu169   2.010   1_556  S
O167        C170   1.277       .  A
Cu168      Cu169   2.374       .  S
C170       C1040   1.476       .  S
C171       C1062   1.477       .  S
C172       C1047   1.477       .  S
C173       C1043   1.479       .  S
N174        N175   1.320       .  A
N174        C178   1.353       .  A
N174       Cu182   2.105       .  S
N175        C176   1.340       .  A
N175       Cu181   2.048       .  S
C176        C177   1.382       .  A
C176        H179   1.081   1_554  S
C177        C178   1.393       .  A
C177       C1044   1.487       .  S
C178        H180   1.082       .  S
Cu181       N184   2.047       .  S
Cu182       N192   2.108       .  S
Cu183       N185   2.093       .  S
Cu183       N191   2.096       .  S
N184        N185   1.320       .  A
N184        C188   1.339       .  A
N185        C186   1.351       .  A
C186        C187   1.390       .  A
C186        H189   1.082       .  S
C187        C188   1.382       .  A
C187       C1051   1.483       .  S
C188        H190   1.081   1_554  S
N191        N192   1.328       .  A
N191        C195   1.349       .  A
N192        C193   1.350       .  A
C193        C194   1.384       .  A
C193        H196   1.082       .  S
C194        C195   1.382       .  A
C194       C1115   1.450       .  S
C195        H197   1.082       .  S
N198        N199   1.320       .  A
N198        C202   1.351       .  A
N198       Cu206   2.097       .  S
N199        C200   1.340       .  A
N199       Cu205   2.047       .  S
C200        C201   1.381       .  A
C200        H203   1.081       .  S
C201        C202   1.391       .  A
C201       C1039   1.482       .  S
C202        H204   1.082       .  S
Cu205       N208   2.047       .  S
Cu206       N216   2.099       .  S
Cu207       N209   2.092       .  S
Cu207       N215   2.094       .  S
N208        N209   1.320       .  A
N208        C212   1.339       .  A
N209        C210   1.351       .  A
C210        C211   1.390       .  A
C210        H213   1.082       .  S
C211        C212   1.382       .  A
C211       C1035   1.483       .  S
C212        H214   1.081       .  S
N215        N216   1.327       .  A
N215        C219   1.348       .  A
N216        C217   1.349       .  A
C217        C218   1.382       .  A
C217        H220   1.082       .  S
C218        C219   1.381       .  A
C218       C1033   1.446       .  S
C219        H221   1.082       .  S
N222        N223   1.320       .  A
N222        C226   1.351       .  A
N222       Cu230   2.096       .  S
N223        C224   1.340       .  A
N223       Cu229   2.051       .  S
C224        C225   1.383       .  A
C224        H227   1.081       .  S
C225        C226   1.390       .  A
C225       C1029   1.485       .  S
C226        H228   1.082       .  S
Cu229       N232   2.050       .  S
Cu230       N240   2.098       .  S
Cu231       N233   2.099       .  S
Cu231       N239   2.101       .  S
N232        N233   1.320       .  A
N232        C236   1.339       .  A
N233        C234   1.352       .  A
C234        C235   1.392       .  A
C234        H237   1.082       .  S
C235        C236   1.382       .  A
C235       C1026   1.486       .  S
C236        H238   1.081       .  S
N239        N240   1.328       .  A
N239        C243   1.349       .  A
N240        C241   1.349       .  A
C241        C242   1.382       .  A
C241        H244   1.082       .  S
C242        C243   1.382       .  A
C242       C1023   1.448       .  S
C243        H245   1.082       .  S
O246       Cu254   2.010   1_655  S
O246        C256   1.278       .  A
O247       Cu254   2.010       .  S
O247        C257   1.278       .  A
O248       Cu254   2.014       .  S
O248        C258   1.278       .  A
O249       Cu254   2.016       .  S
O249        C259   1.278       .  A
O250       Cu255   2.012       .  S
O250        C259   1.278       .  A
O251       Cu255   2.006       .  S
O251        C258   1.278       .  A
O252       Cu255   2.022       .  S
O252        C257   1.278       .  A
O253       Cu255   2.021   1_655  S
O253        C256   1.278       .  A
Cu254      Cu255   2.375       .  S
C256       C1092   1.477       .  S
C257       C1025   1.477       .  S
C258       C1015   1.473       .  S
C259       C1019   1.476       .  S
O260       Cu268   2.022       .  S
O260        C270   1.279       .  A
O261       Cu268   2.021   1_655  S
O261        C271   1.278       .  A
O262       Cu268   2.013       .  S
O262        C272   1.279       .  A
O263       Cu268   2.013       .  S
O263        C273   1.278       .  A
O264       Cu269   2.011       .  S
O264        C273   1.277       .  A
O265       Cu269   2.013       .  S
O265        C272   1.278       .  A
O266       Cu269   2.002   1_655  S
O266        C271   1.277       .  A
O267       Cu269   2.003       .  S
O267        C270   1.277       .  A
Cu268      Cu269   2.375       .  S
C270       C1003   1.475       .  S
C271       C1036   1.474       .  S
C272       C1011   1.476       .  S
C273       C1008   1.475       .  S
N274        N275   1.321       .  A
N274        C278   1.350       .  A
N274       Cu282   2.094       .  S
N275        C276   1.340   1_455  A
N275       Cu281   2.051   1_455  S
C276        C277   1.382   1_655  A
C276        H279   1.081       .  S
C277        C278   1.389       .  A
C277       C1012   1.482       .  S
C278        H280   1.082       .  S
Cu281       N284   2.051   1_655  S
Cu282       N292   2.096       .  S
Cu283       N285   2.092       .  S
Cu283       N291   2.094       .  S
N284        N285   1.320       .  A
N284        C288   1.340   1_455  A
N285        C286   1.351       .  A
C286        C287   1.390       .  A
C286        H289   1.082       .  S
C287        C288   1.382   1_455  A
C287       C1020   1.482       .  S
C288        H290   1.081       .  S
N291        N292   1.327       .  A
N291        C295   1.348       .  A
N292        C293   1.349       .  A
C293        C294   1.382       .  A
C293        H296   1.082       .  S
C294        C295   1.381       .  A
C294       C1099   1.446       .  S
C295        H297   1.082       .  S
N298        N299   1.320       .  A
N298        C302   1.349       .  A
N298       Cu306   2.091       .  S
N299        C300   1.341       .  A
N299       Cu305   2.051       .  S
C300        C301   1.382       .  A
C300        H303   1.081       .  S
C301        C302   1.389       .  A
C301        C999   1.480       .  S
C302        H304   1.082       .  S
Cu305       N308   2.051       .  S
Cu306       N316   2.093       .  S
Cu307       N309   2.093       .  S
Cu307       N315   2.095       .  S
N308        N309   1.320       .  A
N308        C312   1.339       .  A
N309        C310   1.351       .  A
C310        C311   1.390       .  A
C310        H313   1.082       .  S
C311        C312   1.383       .  A
C311       C1004   1.483       .  S
C312        H314   1.081       .  S
N315        N316   1.327       .  A
N315        C319   1.348       .  A
N316        C317   1.348       .  A
C317        C318   1.381       .  A
C317        H320   1.082       .  S
C318        C319   1.381       .  A
C318        C997   1.445       .  S
C319        H321   1.082       .  S
N322        N323   1.320       .  A
N322        C326   1.352       .  A
N322       Cu330   2.099       .  S
N323        C324   1.340       .  A
N323       Cu329   2.050       .  S
C324        C325   1.382       .  A
C324        H327   1.081       .  S
C325        C326   1.391       .  A
C325        C989   1.485       .  S
C326        H328   1.082       .  S
Cu329       N332   2.049       .  S
Cu330       N340   2.102       .  S
Cu331       N333   2.099       .  S
Cu331       N339   2.102       .  S
N332        N333   1.320       .  A
N332        C336   1.339       .  A
N333        C334   1.352       .  A
C334        C335   1.392       .  A
C334        H337   1.082       .  S
C335        C336   1.382       .  A
C335        C993   1.485       .  S
C336        H338   1.081       .  S
N339        N340   1.328       .  A
N339        C343   1.349       .  A
N340        C341   1.350       .  A
C341        C342   1.383       .  A
C341        H344   1.082       .  S
C342        C343   1.382       .  A
C342        C987   1.450       .  S
C343        H345   1.082       .  S
O346       Cu354   2.011       .  S
O346        C356   1.278       .  A
O347       Cu354   2.008       .  S
O347        C357   1.278       .  A
O348       Cu354   2.019       .  S
O348        C358   1.278       .  A
O349       Cu354   2.020   1_565  S
O349        C359   1.278       .  A
O350       Cu355   2.011   1_565  S
O350        C359   1.279       .  A
O351       Cu355   2.013       .  S
O351        C358   1.279       .  A
O352       Cu355   2.008       .  S
O352        C357   1.277       .  A
O353       Cu355   2.011       .  S
O353        C356   1.277       .  A
Cu354      Cu355   2.375       .  S
C356        C979   1.474       .  S
C357        C983   1.472       .  S
C358        C990   1.478       .  S
C359       C1096   1.477       .  S
O360       Cu368   2.012   1_565  S
O360        C370   1.278       .  A
O361       Cu368   2.013       .  S
O361        C371   1.278       .  A
O362       Cu368   2.001       .  S
O362        C372   1.277       .  A
O363       Cu368   2.001       .  S
O363        C373   1.277       .  A
O364       Cu369   2.018       .  S
O364        C373   1.278       .  A
O365       Cu369   2.017       .  S
O365        C372   1.278       .  A
O366       Cu369   2.009       .  S
O366        C371   1.278       .  A
O367       Cu369   2.008   1_565  S
O367        C370   1.278       .  A
Cu368      Cu369   2.376       .  S
C370       C1082   1.473       .  S
C371        C967   1.474       .  S
C372        C971   1.472       .  S
C373        C976   1.473       .  S
N374        N375   1.320       .  A
N374        C378   1.350       .  A
N374       Cu382   2.085       .  S
N375        C376   1.338       .  A
N375       Cu381   2.047       .  S
C376        C377   1.381       .  A
C376        H379   1.081   1_545  S
C377        C378   1.389       .  A
C377        C984   1.479       .  S
C378        H380   1.082       .  S
Cu381       N384   2.047       .  S
Cu382       N392   2.087       .  S
Cu383       N385   2.085       .  S
Cu383       N391   2.087       .  S
N384        N385   1.319       .  A
N384        C388   1.338       .  A
N385        C386   1.350       .  A
C386        C387   1.388       .  A
C386        H389   1.082       .  S
C387        C388   1.382       .  A
C387        C972   1.480       .  S
C388        H390   1.081   1_545  S
N391        N392   1.327       .  A
N391        C395   1.347       .  A
N392        C393   1.347       .  A
C393        C394   1.380       .  A
C393        H396   1.082       .  S
C394        C395   1.380       .  A
C394       C1132   1.441       .  S
C395        H397   1.082       .  S
N398        N399   1.321       .  A
N398        C402   1.351       .  A
N398       Cu406   2.092       .  S
N399        C400   1.339       .  A
N399       Cu405   2.050       .  S
C400        C401   1.381       .  A
C400        H403   1.081       .  S
C401        C402   1.389       .  A
C401        C968   1.481       .  S
C402        H404   1.082       .  S
Cu405       N408   2.051       .  S
Cu406       N416   2.094       .  S
Cu407       N409   2.091       .  S
Cu407       N415   2.093       .  S
N408        N409   1.320       .  A
N408        C412   1.341       .  A
N409        C410   1.350       .  A
C410        C411   1.389       .  A
C410        H413   1.082       .  S
C411        C412   1.382       .  A
C411        C963   1.482       .  S
C412        H414   1.081       .  S
N415        N416   1.327       .  A
N415        C419   1.348       .  A
N416        C417   1.348       .  A
C417        C418   1.381       .  A
C417        H420   1.082       .  S
C418        C419   1.382       .  A
C418        C962   1.446       .  S
C419        H421   1.082       .  S
O422       Cu430   2.012       .  S
O422        C432   1.279       .  A
O423       Cu430   2.017       .  S
O423        C433   1.279       .  A
O424       Cu430   2.004   1_556  S
O424        C434   1.276       .  A
O425       Cu430   2.005       .  S
O425        C435   1.275       .  A
O426       Cu431   2.028       .  S
O426        C435   1.282       .  A
O427       Cu431   2.022   1_556  S
O427        C434   1.280       .  A
O428       Cu431   2.012       .  S
O428        C433   1.277       .  A
O429       Cu431   2.014       .  S
O429        C432   1.277       .  A
Cu430      Cu431   2.374       .  S
C432        C957   1.475       .  S
C433        C953   1.477       .  S
C434       C1000   1.477       .  S
C435        C949   1.480       .  S
N436        N437   1.320       .  A
N436        C440   1.353   1_554  A
N436       Cu444   2.104   1_554  S
N437        C438   1.338       .  A
N437       Cu443   2.043       .  S
C438        C439   1.380       .  A
C438        H441   1.081       .  S
C439        C440   1.392   1_554  A
C439        C958   1.483       .  S
C440        H442   1.082       .  S
Cu443       N446   2.044       .  S
Cu444       N454   2.107       .  S
Cu445       N447   2.103   1_556  S
Cu445       N453   2.106       .  S
N446        N447   1.319       .  A
N446        C450   1.340       .  A
N447        C448   1.352       .  A
C448        C449   1.392       .  A
C448        H451   1.082   1_554  S
C449        C450   1.382       .  A
C449       C1056   1.486       .  S
C450        H452   1.081       .  S
N453        N454   1.328       .  A
N453        C457   1.350       .  A
N454        C455   1.351       .  A
C455        C456   1.384       .  A
C455        H458   1.082       .  S
C456        C457   1.383       .  A
C456       C1102   1.453       .  S
C457        H459   1.082       .  S
O460       Cu468   2.016       .  S
O460        C470   1.278       .  A
O461       Cu468   2.016       .  S
O461        C471   1.278       .  A
O462       Cu468   2.014       .  S
O462        C472   1.279       .  A
O463       Cu468   2.011   1_655  S
O463        C473   1.278       .  A
O464       Cu469   2.003   1_655  S
O464        C473   1.277       .  A
O465       Cu469   2.005       .  S
O465        C472   1.276       .  A
O466       Cu469   2.004       .  S
O466        C471   1.277       .  A
O467       Cu469   2.008       .  S
O467        C470   1.278       .  A
Cu468      Cu469   2.376       .  S
C470        C941   1.474       .  S
C471        C946   1.473       .  S
C472        C937   1.473       .  S
C473       C1065   1.472       .  S
N474        N475   1.320       .  A
N474        C478   1.351   1_455  A
N474       Cu482   2.092   1_455  S
N475        C476   1.338       .  A
N475       Cu481   2.047       .  S
C476        C477   1.382       .  A
C476        H479   1.081       .  S
C477        C478   1.390   1_455  A
C477        C945   1.482       .  S
C478        H480   1.082       .  S
Cu481       N484   2.047       .  S
Cu482       N492   2.095       .  S
Cu483       N485   2.091   1_655  S
Cu483       N491   2.094       .  S
N484        N485   1.320       .  A
N484        C488   1.339       .  A
N485        C486   1.350   1_455  A
C486        C487   1.390   1_655  A
C486        H489   1.082       .  S
C487        C488   1.382       .  A
C487       C1016   1.481       .  S
C488        H490   1.081       .  S
N491        N492   1.327       .  A
N491        C495   1.348       .  A
N492        C493   1.348       .  A
C493        C494   1.382       .  A
C493        H496   1.082       .  S
C494        C495   1.381       .  A
C494       C1120   1.446       .  S
C495        H497   1.082       .  S
N498        N499   1.320       .  A
N498        C502   1.353       .  A
N498       Cu506   2.103       .  S
N499        C500   1.340       .  A
N499       Cu505   2.044       .  S
C500        C501   1.375       .  A
C500        H503   1.082       .  S
C501        C502   1.394       .  A
C501        C950   1.479       .  S
C502        H504   1.082       .  S
Cu505       N508   2.043       .  S
Cu506       N516   2.105       .  S
Cu507       N509   2.094       .  S
Cu507       N515   2.097       .  S
N508        N509   1.320       .  A
N508        C512   1.339       .  A
N509        C510   1.351       .  A
C510        C511   1.390       .  A
C510        H513   1.082       .  S
C511        C512   1.380       .  A
C511        C938   1.479       .  S
C512        H514   1.082       .  S
N515        N516   1.327       .  A
N515        C519   1.349       .  A
N516        C517   1.350       .  A
C517        C518   1.384       .  A
C517        H520   1.082       .  S
C518        C519   1.382       .  A
C518        C935   1.450       .  S
C519        H521   1.082       .  S
O522       Cu530   2.011   1_556  S
O522        C532   1.278       .  A
O523       Cu530   2.007       .  S
O523        C533   1.278       .  A
O524       Cu530   2.013       .  S
O524        C534   1.277       .  A
O525       Cu530   2.011       .  S
O525        C535   1.277       .  A
O526       Cu531   2.011       .  S
O526        C535   1.278       .  A
O527       Cu531   2.011       .  S
O527        C534   1.279       .  A
O528       Cu531   2.013       .  S
O528        C533   1.278       .  A
O529       Cu531   2.015   1_556  S
O529        C532   1.278       .  A
Cu530      Cu531   2.375       .  S
C532        C964   1.476       .  S
C533        C923   1.473       .  S
C534        C927   1.475       .  S
C535        C931   1.474       .  S
N536        N537   1.319   1_556  A
N536        C540   1.352       .  A
N536       Cu544   2.098       .  S
N537        C538   1.339       .  A
N537       Cu543   2.046       .  S
C538        C539   1.382       .  A
C538        H541   1.081       .  S
C539        C540   1.392   1_554  A
C539       C1048   1.485       .  S
C540        H542   1.082       .  S
Cu543       N546   2.044       .  S
Cu544       N554   2.100       .  S
Cu545       N547   2.095   1_556  S
Cu545       N553   2.098       .  S
N546        N547   1.320       .  A
N546        C550   1.339       .  A
N547        C548   1.351   1_554  A
C548        C549   1.390   1_556  A
C548        H551   1.082       .  S
C549        C550   1.381       .  A
C549        C932   1.481       .  S
C550        H552   1.081       .  S
N553        N554   1.328       .  A
N553        C557   1.349       .  A
N554        C555   1.349       .  A
C555        C556   1.382       .  A
C555        H558   1.082       .  S
C556        C557   1.382       .  A
C556       C1134   1.448       .  S
C557        H559   1.082       .  S
O560       Cu568   2.017   1_565  S
O560        C570   1.278       .  A
O561       Cu568   2.020       .  S
O561        C571   1.278       .  A
O562       Cu568   2.005       .  S
O562        C572   1.277       .  A
O563       Cu568   2.006       .  S
O563        C573   1.278       .  A
O564       Cu569   2.014       .  S
O564        C573   1.277       .  A
O565       Cu569   2.013       .  S
O565        C572   1.278       .  A
O566       Cu569   2.007       .  S
O566        C571   1.278       .  A
O567       Cu569   2.008   1_565  S
O567        C570   1.278       .  A
Cu568      Cu569   2.375       .  S
C570       C1076   1.475       .  S
C571        C912   1.475       .  S
C572        C915   1.473       .  S
C573        C919   1.473       .  S
N574        N575   1.319       .  A
N574        C578   1.351       .  A
N574       Cu582   2.092   1_545  S
N575        C576   1.339       .  A
N575       Cu581   2.046       .  S
C576        C577   1.382       .  A
C576        H579   1.081       .  S
C577        C578   1.390       .  A
C577        C980   1.481       .  S
C578        H580   1.082   1_545  S
Cu581       N584   2.046       .  S
Cu582       N592   2.095       .  S
Cu583       N585   2.092   1_565  S
Cu583       N591   2.095       .  S
N584        N585   1.320       .  A
N584        C588   1.338       .  A
N585        C586   1.351   1_545  A
C586        C587   1.390   1_565  A
C586        H589   1.082       .  S
C587        C588   1.381       .  A
C587        C920   1.481       .  S
C588        H590   1.081       .  S
N591        N592   1.327       .  A
N591        C595   1.348       .  A
N592        C593   1.348       .  A
C593        C594   1.381       .  A
C593        H596   1.082       .  S
C594        C595   1.381       .  A
C594       C1118   1.445       .  S
C595        H597   1.082       .  S
N598        N599   1.320       .  A
N598        C602   1.352       .  A
N598       Cu606   2.095       .  S
N599        C600   1.339       .  A
N599       Cu605   2.048       .  S
C600        C601   1.382       .  A
C600        H603   1.081       .  S
C601        C602   1.391       .  A
C601        C911   1.484       .  S
C602        H604   1.082       .  S
Cu605       N608   2.049       .  S
Cu606       N616   2.097       .  S
Cu607       N609   2.087       .  S
Cu607       N615   2.089       .  S
N608        N609   1.320       .  A
N608        C612   1.339       .  A
N609        C610   1.350       .  A
C610        C611   1.389       .  A
C610        H613   1.082       .  S
C611        C612   1.382       .  A
C611        C924   1.480       .  S
C612        H614   1.081       .  S
N615        N616   1.327       .  A
N615        C619   1.347       .  A
N616        C617   1.348       .  A
C617        C618   1.381       .  A
C617        H620   1.082       .  S
C618        C619   1.380       .  A
C618        C909   1.443       .  S
C619        H621   1.082       .  S
O622       Cu630   2.006       .  S
O622        C632   1.278       .  A
O623       Cu630   2.008   1_565  S
O623        C633   1.278       .  A
O624       Cu630   2.016       .  S
O624        C634   1.278       .  A
O625       Cu630   2.016       .  S
O625        C635   1.278       .  A
O626       Cu631   2.004       .  S
O626        C635   1.277       .  A
O627       Cu631   2.002       .  S
O627        C634   1.277       .  A
O628       Cu631   2.024   1_565  S
O628        C633   1.279       .  A
O629       Cu631   2.025       .  S
O629        C632   1.279       .  A
Cu630      Cu631   2.375       .  S
C632        C897   1.477       .  S
C633       C1030   1.477       .  S
C634        C905   1.473       .  S
C635        C901   1.473       .  S
N636        N637   1.320       .  A
N636        C640   1.351       .  A
N636       Cu644   2.094   1_545  S
N637        C638   1.339       .  A
N637       Cu643   2.047       .  S
C638        C639   1.382       .  A
C638        H641   1.081       .  S
C639        C640   1.390       .  A
C639        C975   1.482       .  S
C640        H642   1.082   1_545  S
Cu643       N646   2.048       .  S
Cu644       N654   2.097       .  S
Cu645       N647   2.092   1_565  S
Cu645       N653   2.095       .  S
N646        N647   1.320       .  A
N646        C650   1.339       .  A
N647        C648   1.351       .  A
C648        C649   1.389       .  A
C648        H651   1.082   1_545  S
C649        C650   1.382       .  A
C649        C906   1.481       .  S
C650        H652   1.081       .  S
N653        N654   1.327       .  A
N653        C657   1.348       .  A
N654        C655   1.349       .  A
C655        C656   1.382       .  A
C655        H658   1.082       .  S
C656        C657   1.382       .  A
C656       C1104   1.447       .  S
C657        H659   1.082       .  S
O660       Cu668   2.008       .  S
O660        C670   1.278       .  A
O661       Cu668   2.008       .  S
O661        C671   1.278       .  A
O662       Cu668   2.018   1_655  S
O662        C672   1.278       .  A
O663       Cu668   2.019       .  S
O663        C673   1.278       .  A
O664       Cu669   2.016       .  S
O664        C673   1.279       .  A
O665       Cu669   2.014   1_655  S
O665        C672   1.279       .  A
O666       Cu669   2.011       .  S
O666        C671   1.277       .  A
O667       Cu669   2.011       .  S
O667        C670   1.277       .  A
Cu668      Cu669   2.375       .  S
C670        C894   1.473       .  S
C671        C889   1.473       .  S
C672        C994   1.477       .  S
C673        C886   1.479       .  S
N674        N675   1.320       .  A
N674        C678   1.350   1_455  A
N674       Cu682   2.090   1_455  S
N675        C676   1.340       .  A
N675       Cu681   2.047       .  S
C676        C677   1.381       .  A
C676        H679   1.081       .  S
C677        C678   1.389   1_455  A
C677       C1007   1.480       .  S
C678        H680   1.082       .  S
Cu681       N684   2.047       .  S
Cu682       N692   2.093       .  S
Cu683       N685   2.090   1_655  S
Cu683       N691   2.092       .  S
N684        N685   1.320       .  A
N684        C688   1.339       .  A
N685        C686   1.350   1_455  A
C686        C687   1.389   1_655  A
C686        H689   1.082       .  S
C687        C688   1.381       .  A
C687        C893   1.481       .  S
C688        H690   1.081       .  S
N691        N692   1.327       .  A
N691        C695   1.348       .  A
N692        C693   1.348       .  A
C693        C694   1.381       .  A
C693        H696   1.082       .  S
C694        C695   1.381       .  A
C694       C1135   1.444       .  S
C695        H697   1.082       .  S
N698        N699   1.320       .  A
N698        C702   1.352       .  A
N698       Cu706   2.096       .  S
N699        C700   1.339       .  A
N699       Cu705   2.050       .  S
C700        C701   1.383       .  A
C700        H703   1.081       .  S
C701        C702   1.392       .  A
C701        C898   1.485       .  S
C702        H704   1.082       .  S
Cu705       N708   2.049       .  S
Cu706       N716   2.099       .  S
Cu707       N709   2.103       .  S
Cu707       N715   2.105       .  S
N708        N709   1.320       .  A
N708        C712   1.340       .  A
N709        C710   1.352       .  A
C710        C711   1.392       .  A
C710        H713   1.082       .  S
C711        C712   1.382       .  A
C711        C885   1.486       .  S
C712        H714   1.081       .  S
N715        N716   1.328       .  A
N715        C719   1.350       .  A
N716        C717   1.349       .  A
C717        C718   1.382       .  A
C717        H720   1.082       .  S
C718        C719   1.383       .  A
C718        C883   1.450       .  S
C719        H721   1.082       .  S
N722        N723   1.320   1_455  A
N722        C726   1.351       .  A
N722       Cu730   2.093       .  S
N723        C724   1.339       .  A
N723       Cu729   2.049       .  S
C724        C725   1.382   1_655  A
C724        H727   1.081       .  S
C725        C726   1.390       .  A
C725        C942   1.482       .  S
C726        H728   1.082       .  S
Cu729       N732   2.049   1_655  S
Cu730       N740   2.096       .  S
Cu731       N733   2.085       .  S
Cu731       N739   2.088       .  S
N732        N733   1.320       .  A
N732        C736   1.339   1_455  A
N733        C734   1.350       .  A
C734        C735   1.388       .  A
C734        H737   1.082       .  S
C735        C736   1.382   1_455  A
C735        C890   1.479       .  S
C736        H738   1.081       .  S
N739        N740   1.327       .  A
N739        C743   1.347       .  A
N740        C741   1.348       .  A
C741        C742   1.382       .  A
C741        H744   1.082       .  S
C742        C743   1.380       .  A
C742       C1152   1.444       .  S
C743        H745   1.082       .  S
N746        N747   1.320       .  A
N746        C750   1.350       .  A
N746       Cu754   2.088       .  S
N747        C748   1.339       .  A
N747       Cu753   2.047   1_545  S
C748        C749   1.382       .  A
C748        H751   1.081   1_545  S
C749        C750   1.389       .  A
C749        C916   1.480       .  S
C750        H752   1.082       .  S
Cu753       N756   2.047   1_565  S
Cu754       N764   2.090       .  S
Cu755       N757   2.089       .  S
Cu755       N763   2.092       .  S
N756        N757   1.320       .  A
N756        C760   1.339       .  A
N757        C758   1.350       .  A
C758        C759   1.389       .  A
C758        H761   1.082       .  S
C759        C760   1.382       .  A
C759        C902   1.481       .  S
C760        H762   1.081   1_545  S
N763        N764   1.327       .  A
N763        C767   1.348       .  A
N764        C765   1.347       .  A
C765        C766   1.380       .  A
C765        H768   1.082       .  S
C766        C767   1.381       .  A
C766       C1149   1.443       .  S
C767        H769   1.082       .  S
N770        N771   1.320       .  A
N770        C774   1.351       .  A
N770       Cu778   2.098       .  S
N771        C772   1.340       .  A
N771       Cu777   2.046       .  S
C772        C773   1.382       .  A
C772        H775   1.081   1_554  S
C773        C774   1.390       .  A
C773        C954   1.482       .  S
C774        H776   1.082       .  S
Cu777       N780   2.045       .  S
Cu778       N788   2.100       .  S
Cu779       N781   2.099       .  S
Cu779       N787   2.102       .  S
N780        N781   1.320       .  A
N780        C784   1.338       .  A
N781        C782   1.352       .  A
C782        C783   1.391       .  A
C782        H785   1.082       .  S
C783        C784   1.381       .  A
C783        C928   1.483       .  S
C784        H786   1.081   1_554  S
N787        N788   1.327       .  A
N787        C791   1.350       .  A
N788        C789   1.349       .  A
C789        C790   1.383       .  A
C789        H792   1.082       .  S
C790        C791   1.383       .  A
C790       C1148   1.451       .  S
C791        H793   1.082       .  S
C794        C795   1.545       .  S
C794        C800   1.549       .  S
C794        C798   1.553       .  S
C794        C874   1.546       .  S
C795        H802   1.086       .  S
C795        C796   1.366       .  D
C796        C797   1.534       .  S
C796        C998   1.449       .  S
C797        C801   1.534       .  S
C797        C799   1.533       .  S
C797        H803   1.112       .  S
C798        H804   1.081       .  S
C798        C799   1.365       .  D
C799        C961   1.450       .  S
C800        H805   1.086       .  S
C800        C801   1.369       .  D
C801        C884   1.454       .  S
C806        C807   1.545       .  S
C806        C812   1.552       .  S
C806        C810   1.549       .  S
C806        C864   1.544       .  S
C807        H814   1.086       .  S
C807        C808   1.365       .  D
C808        C809   1.533       .  S
C808        C910   1.447       .  S
C809        C813   1.532       .  S
C809        C811   1.534       .  S
C809        H815   1.112       .  S
C810        H816   1.086       .  S
C810        C811   1.369       .  D
C811        C988   1.454       .  S
C812        H817   1.081       .  S
C812        C813   1.364       .  D
C813       C1059   1.448       .  S
C818        C819   1.547       .  S
C818        C824   1.549       .  S
C818        C822   1.553       .  S
C818        C854   1.547       .  S
C819        H826   1.086       .  S
C819        C820   1.367       .  D
C820        C821   1.533       .  S
C820       C1034   1.450       .  S
C821        C825   1.533       .  S
C821        C823   1.532       .  S
C821        H827   1.112       .  S
C822        H828   1.082       .  S
C822        C823   1.365       .  D
C823       C1079   1.449       .  S
C824        H829   1.086       .  S
C824        C825   1.368       .  D
C825       C1090   1.453       .  S
C830        C831   1.543       .  S
C830        C836   1.554       .  S
C830        C834   1.547       .  S
C830        C844   1.545       .  S
C831        H838   1.086       .  S
C831        C832   1.365       .  D
C832        C833   1.535       .  S
C832       C1070   1.448       .  S
C833        C837   1.535       .  S
C833        C835   1.535       .  S
C833        H839   1.112       .  S
C834        H840   1.086       .  S
C834        C835   1.367       .  D
C835       C1024   1.452       .  S
C836        H841   1.082       .  S
C836        C837   1.368       .  D
C837        C936   1.455       .  S
C842        C847   1.569       .  S
C842        C857   1.571       .  S
C842        C867   1.568       .  S
C842        C877   1.569       .  S
C843        C844   1.411       .  A
C843        C848   1.405       .  A
C843        H849   1.077       .  S
C844        C845   1.408       .  A
C845        C846   1.404       .  A
C845        H850   1.083       .  S
C846        C847   1.416       .  A
C846        H851   1.078       .  S
C847        C848   1.414       .  A
C848        H852   1.083       .  S
C853        C854   1.407       .  A
C853        C858   1.404       .  A
C853        H859   1.083       .  S
C854        C855   1.413       .  A
C855        C856   1.406       .  A
C855        H860   1.076       .  S
C856        C857   1.413       .  A
C856        H861   1.083       .  S
C857        C858   1.417       .  A
C858        H862   1.078       .  S
C863        C864   1.408       .  A
C863        C868   1.404       .  A
C863        H869   1.083       .  S
C864        C865   1.412       .  A
C865        C866   1.403       .  A
C865        H870   1.076       .  S
C866        C867   1.413       .  A
C866        H871   1.083       .  S
C867        C868   1.416       .  A
C868        H872   1.078       .  S
C873        C874   1.408       .  A
C873        C878   1.405       .  A
C873        H879   1.083       .  S
C874        C875   1.412       .  A
C875        C876   1.404       .  A
C875        H880   1.076       .  S
C876        C877   1.413       .  A
C876        H881   1.083       .  S
C877        C878   1.417       .  A
C878        H882   1.078       .  S
C883        C884   1.213       .  T
C885        H887   1.086       .  S
C885        C886   1.350       .  D
C886        H888   1.085       .  S
C889        H891   1.085       .  S
C889        C890   1.347       .  D
C890        H892   1.086       .  S
C893        H895   1.086       .  S
C893        C894   1.347       .  D
C894        H896   1.085       .  S
C897        H899   1.085       .  S
C897        C898   1.348       .  D
C898        H900   1.086       .  S
C901        H903   1.085       .  S
C901        C902   1.347       .  D
C902        H904   1.086       .  S
C905        H907   1.085       .  S
C905        C906   1.347       .  D
C906        H908   1.086       .  S
C909        C910   1.209       .  T
C911        H913   1.086       .  S
C911        C912   1.348       .  D
C912        H914   1.085       .  S
C915        H917   1.085       .  S
C915        C916   1.347       .  D
C916        H918   1.086       .  S
C919        H921   1.085       .  S
C919        C920   1.347       .  D
C920        H922   1.086       .  S
C923        H925   1.085       .  S
C923        C924   1.347       .  D
C924        H926   1.086       .  S
C927        H929   1.085       .  S
C927        C928   1.349       .  D
C928        H930   1.086       .  S
C931        H933   1.085       .  S
C931        C932   1.348       .  D
C932        H934   1.086       .  S
C935        C936   1.213       .  T
C937        H939   1.086       .  S
C937        C938   1.348       .  D
C938        H940   1.086       .  S
C941        H943   1.085   1_455  S
C941        C942   1.348       .  D
C942        H944   1.086       .  S
C945        H947   1.086       .  S
C945        C946   1.347       .  D
C946        H948   1.085       .  S
C949        H951   1.086       .  S
C949        C950   1.340       .  D
C950        H952   1.087       .  S
C953        H955   1.085       .  S
C953        C954   1.349       .  D
C954        H956   1.086       .  S
C957        H959   1.085       .  S
C957        C958   1.349       .  D
C958        H960   1.086       .  S
C961        C962   1.211       .  T
C963        H965   1.086       .  S
C963        C964   1.348       .  D
C964        H966   1.085       .  S
C967        H969   1.085       .  S
C967        C968   1.347       .  D
C968        H970   1.086       .  S
C971        H973   1.085       .  S
C971        C972   1.346       .  D
C972        H974   1.086       .  S
C975        H977   1.086       .  S
C975        C976   1.347       .  D
C976        H978   1.085       .  S
C979        H981   1.085       .  S
C979        C980   1.348       .  D
C980        H982   1.086       .  S
C983        H985   1.085       .  S
C983        C984   1.347       .  D
C984        H986   1.086       .  S
C987        C988   1.213       .  T
C989        H991   1.086       .  S
C989        C990   1.349       .  D
C990        H992   1.085       .  S
C993        H995   1.086       .  S
C993        C994   1.350       .  D
C994        H996   1.085       .  S
C997        C998   1.210       .  T
C999       H1001   1.086       .  S
C999       C1000   1.349       .  D
C1000      H1002   1.085       .  S
C1003      H1005   1.085       .  S
C1003      C1004   1.347       .  D
C1004      H1006   1.086       .  S
C1007      H1009   1.086       .  S
C1007      C1008   1.348       .  D
C1008      H1010   1.085       .  S
C1011      H1013   1.085       .  S
C1011      C1012   1.348       .  D
C1012      H1014   1.086       .  S
C1015      H1017   1.085       .  S
C1015      C1016   1.347       .  D
C1016      H1018   1.086       .  S
C1019      H1021   1.085       .  S
C1019      C1020   1.348       .  D
C1020      H1022   1.086       .  S
C1023      C1024   1.212       .  T
C1025      H1027   1.085       .  S
C1025      C1026   1.349       .  D
C1026      H1028   1.086       .  S
C1029      H1031   1.086       .  S
C1029      C1030   1.348       .  D
C1030      H1032   1.085       .  S
C1033      C1034   1.211       .  T
C1035      H1037   1.086       .  S
C1035      C1036   1.347       .  D
C1036      H1038   1.085       .  S
C1039      H1041   1.086       .  S
C1039      C1040   1.349       .  D
C1040      H1042   1.085       .  S
C1043      H1045   1.085       .  S
C1043      C1044   1.350       .  D
C1044      H1046   1.086       .  S
C1047      H1049   1.085       .  S
C1047      C1048   1.349       .  D
C1048      H1050   1.086       .  S
C1051      H1053   1.086       .  S
C1051      C1052   1.348       .  D
C1052      H1054   1.085       .  S
C1055      H1057   1.085       .  S
C1055      C1056   1.349       .  D
C1056      H1058   1.086       .  S
C1059      C1060   1.210       .  T
C1061      H1063   1.086       .  S
C1061      C1062   1.350       .  D
C1062      H1064   1.085       .  S
C1065      H1067   1.085       .  S
C1065      C1066   1.347       .  D
C1066      H1068   1.086       .  S
C1069      C1070   1.210       .  T
C1071      H1073   1.086       .  S
C1071      C1072   1.347       .  D
C1072      H1074   1.085       .  S
C1075      H1077   1.086       .  S
C1075      C1076   1.347       .  D
C1076      H1078   1.085       .  S
C1079      C1080   1.210       .  T
C1081      H1083   1.086       .  S
C1081      C1082   1.347       .  D
C1082      H1084   1.085       .  S
C1085      H1087   1.086       .  S
C1085      C1086   1.348       .  D
C1086      H1088   1.085       .  S
C1089      C1090   1.213       .  T
C1091      H1093   1.086       .  S
C1091      C1092   1.349       .  D
C1092      H1094   1.085       .  S
C1095      H1097   1.086       .  S
C1095      C1096   1.350       .  D
C1096      H1098   1.085       .  S
C1099      C1100   1.211       .  T
C1101      C1102   1.215       .  T
C1103      C1104   1.212       .  T
C1105      C1106   1.414       .  A
C1105      C1110   1.406       .  A
C1105      H1111   1.076       .  S
C1106      C1107   1.408       .  A
C1107      C1108   1.407       .  A
C1107      H1112   1.083       .  S
C1108      C1109   1.418       .  A
C1108      H1113   1.079   1_566  S
C1109      C1110   1.412       .  A
C1110      H1114   1.083   1_455  S
C1115      C1116   1.213       .  T
C1117      C1118   1.211       .  T
C1119      C1120   1.211       .  T
C1121      C1122   1.408       .  A
C1121      C1126   1.406       .  A
C1121      H1127   1.083       .  S
C1122      C1123   1.412       .  A
C1123      C1124   1.405   1_565  A
C1123      H1128   1.076   1_565  S
C1124      C1125   1.413   1_545  A
C1124      H1129   1.083       .  S
C1125      C1126   1.416       .  A
C1126      H1130   1.078   1_655  S
C1131      C1132   1.208       .  T
C1133      C1134   1.212       .  T
C1135      C1136   1.210       .  T
C1137      C1138   1.412       .  A
C1137      C1142   1.404   1_655  A
C1137      H1143   1.076   1_655  S
C1138      C1139   1.408       .  A
C1139      C1140   1.405       .  A
C1139      H1144   1.083       .  S
C1140      C1141   1.416       .  A
C1140      H1145   1.079   1_556  S
C1141      C1142   1.413   1_655  A
C1142      H1146   1.083       .  S
C1147      C1148   1.214       .  T
C1149      C1150   1.209       .  T
C1151      C1152   1.210       .  T
C1153      C1154   1.412       .  A
C1153      C1158   1.403       .  A
C1153      H1159   1.076       .  S
C1154      C1155   1.408       .  A
C1155      C1156   1.404       .  A
C1155      H1160   1.083       .  S
C1156      C1157   1.417       .  A
C1156      H1161   1.079       .  S
C1157      C1158   1.412       .  A
C1158      H1162   1.083   1_545  S
