geometry optimzed in LAMMPS
_audit_creation_date              2020-12-01 
_audit_creation_method            'lammps2cif' 
_symmetry_space_group_name_H-M    'P1' 
_symmetry_Int_Tables_number       1 
_symmetry_cell_setting            triclinic 
loop_ 
_symmetry_equiv_pos_as_xyz 
  x,y,z 
_cell_length_a                    47.72636137 
_cell_length_b                    47.49830495554594 
_cell_length_c                    47.691608646630655 
_cell_angle_alpha                 90.04520816975491 
_cell_angle_beta                  89.99959113409685 
_cell_angle_gamma                 90.06336338477925 
loop_ 
_atom_site_label 
_atom_site_type_symbol 
_atom_site_fract_x 
_atom_site_fract_y 
_atom_site_fract_z 
_atom_site_charge 
N1          N  0.21379701  0.30011774  0.23832912    -0.26800
N2          N  0.20203675  0.28787578  0.26028511    -0.34700
C3          C  0.17951019  0.30286788  0.26813619     0.01500
C4          C  0.17687345  0.32544890  0.25009707     0.07600
C5          C  0.19886369  0.32307774  0.23144139    -0.05500
H6          H  0.16584624  0.29739799  0.28539519     0.08200
H7          H  0.20367673  0.33698244  0.21413575     0.09400
Cu8        Cu  0.21626906  0.25107028  0.27852391     0.44200
Cu9        Cu  0.24945275  0.28523184  0.21856554     0.42000
Cu10       Cu  0.27897706  0.22214113  0.24962084     0.43900
N11         N  0.23553973  0.21556766  0.29452342    -0.34200
N12         N  0.25923319  0.20542211  0.28440161    -0.28400
C13         C  0.26715259  0.18316092  0.29988167    -0.04500
C14         C  0.24728040  0.17897051  0.32052076     0.07700
C15         C  0.22749273  0.19984116  0.31652007     0.01500
H16         H  0.28583297  0.17081500  0.29620357     0.09100
H17         H  0.20888543  0.20363895  0.32890531     0.08200
N18         N  0.29476312  0.24147700  0.21415804    -0.35600
N19         N  0.28442686  0.26473143  0.20300777    -0.27800
C20         C  0.30001229  0.27190805  0.18061498    -0.03100
C21         C  0.32095853  0.25207917  0.17751268     0.05600
C22         C  0.31699338  0.23308298  0.19906899     0.03700
H23         H  0.29631029  0.29014231  0.16755103     0.08800
H24         H  0.32951442  0.21470923  0.20374509     0.07600
O25         O  0.96746648  0.47162841  0.22512402    -0.72400
O26         O  0.02760440  0.53104844  0.22507225    -0.73400
O27         O  0.02732694  0.47168726  0.22392274    -0.62000
O28         O  0.96784063  0.53122550  0.22611817    -0.70500
O29         O  0.96890642  0.53084918  0.27268170    -0.70000
O30         O  0.02769402  0.47063405  0.27050085    -0.61300
O31         O  0.02815411  0.53038463  0.27163981    -0.73800
O32         O  0.96859472  0.47063648  0.27167001    -0.72600
Cu33       Cu  0.99749622  0.50142557  0.22341581     1.04600
Cu34       Cu  0.99833297  0.50060272  0.27324522     1.04300
C35         C  0.95869480  0.46168900  0.24843399     0.93700
C36         C  0.03742836  0.53991639  0.24839685     0.92900
C37         C  0.03691646  0.46189679  0.24692996     0.85000
C38         C  0.95916489  0.54054846  0.24968373     0.91300
N39         N  0.71285977  0.74047162  0.20327222    -0.26800
N40         N  0.70231249  0.76409076  0.21344030    -0.34700
C41         C  0.67983114  0.77144382  0.19807371     0.01500
C42         C  0.67598820  0.75136216  0.17741218     0.07600
C43         C  0.69728570  0.73203352  0.18132255    -0.05500
H44         H  0.66713127  0.78992710  0.20179425     0.08200
H45         H  0.70136029  0.71333259  0.16903081     0.09400
Cu46       Cu  0.71881153  0.78465700  0.24810793     0.44200
Cu47       Cu  0.74821414  0.72099645  0.21932750     0.42000
Cu48       Cu  0.78090218  0.75298793  0.27972091     0.43900
N49         N  0.73894056  0.80042822  0.28333815    -0.34200
N50         N  0.76176031  0.78927389  0.29447404    -0.28400
C51         C  0.76940621  0.80461533  0.31692539    -0.04500
C52         C  0.75032450  0.82620497  0.32022687     0.07700
C53         C  0.73128995  0.82295471  0.29861036     0.01500
H54         H  0.78718306  0.79999486  0.33022041     0.09100
H55         H  0.71317302  0.83591108  0.29428955     0.08200
N56         N  0.79582708  0.71674910  0.26061218    -0.35600
N57         N  0.78409333  0.70538785  0.23817944    -0.27800
C58         C  0.79910107  0.68280424  0.23025437    -0.03100
C59         C  0.82123158  0.67971615  0.24871658     0.05600
C60         C  0.81847830  0.70150437  0.26775000     0.03700
H61         H  0.79413435  0.66957854  0.21245592     0.08800
H62         H  0.83212519  0.70616793  0.28526675     0.07600
O63         O  0.27283487  0.97124170  0.46958520    -0.72400
O64         O  0.27182767  0.03152170  0.52868975    -0.73400
O65         O  0.27153503  0.97219221  0.52927013    -0.62000
O66         O  0.27341187  0.03089974  0.46881222    -0.70500
O67         O  0.22687762  0.03136684  0.46799882    -0.70000
O68         O  0.22500260  0.97226525  0.52795541    -0.61300
O69         O  0.22530404  0.03213992  0.52723801    -0.73800
O70         O  0.22629407  0.97158741  0.46885288    -0.72600
Cu71       Cu  0.27405829  0.00147662  0.49909223     1.04600
Cu72       Cu  0.22425790  0.00186372  0.49794567     1.04300
C73         C  0.24961676  0.96181009  0.46010276     0.93700
C74         C  0.24839686  0.04115208  0.53737069     0.92900
C75         C  0.24798794  0.96302857  0.53812023     0.85000
C76         C  0.25040402  0.04038228  0.45892855     0.91300
O77         O  0.77454554  0.96778729  0.53303747    -0.72400
O78         O  0.77512094  0.02806309  0.47421083    -0.73400
O79         O  0.77522636  0.02768011  0.53339361    -0.62000
O80         O  0.77455903  0.96808216  0.47392753    -0.70500
O81         O  0.72801163  0.96821581  0.47392473    -0.70000
O82         O  0.72868128  0.02810208  0.53338361    -0.61300
O83         O  0.72858175  0.02775695  0.47362616    -0.73800
O84         O  0.72801125  0.96859671  0.53381487    -0.72600
Cu85       Cu  0.77647712  0.99787080  0.50363912     1.04600
Cu86       Cu  0.72666862  0.99817064  0.50368786     1.04300
C87         C  0.75126019  0.95883812  0.54279218     0.93700
C88         C  0.75191368  0.03736176  0.46462994     0.92900
C89         C  0.75204973  0.03731448  0.54270037     0.85000
C90         C  0.75125078  0.95878533  0.46455530     0.91300
N91         N  0.20343080  0.71630149  0.73710394    -0.26800
N92         N  0.21453518  0.70462429  0.75969236    -0.34700
C93         C  0.19879701  0.68238271  0.76728171     0.01500
C94         C  0.17694980  0.67983745  0.74843828     0.07600
C95         C  0.18054821  0.70160475  0.72954595    -0.05500
H96         H  0.20302943  0.66900318  0.78513358     0.08200
H97         H  0.16728923  0.70672451  0.71187863     0.09400
Cu98       Cu  0.25054421  0.71924590  0.77928043     0.47800
Cu99       Cu  0.21877554  0.75240952  0.71803275     0.42000
Cu100      Cu  0.28068697  0.78234669  0.74899557     0.43900
N101        N  0.28610976  0.73895704  0.79484481    -0.34200
N102        N  0.29673605  0.76225832  0.78401239    -0.28400
C103        C  0.31912534  0.77016666  0.79920522    -0.04500
C104        C  0.32288359  0.75079287  0.82049191     0.07700
C105        C  0.30165927  0.73125802  0.81708906     0.01500
H106        H  0.33180884  0.78854582  0.79488445     0.09100
H107        H  0.29762998  0.71296262  0.82998078     0.08200
N108        N  0.26066457  0.79959631  0.71454416    -0.35600
N109        N  0.23760569  0.78894590  0.70341924    -0.27800
C110        C  0.22955370  0.80524912  0.68181175    -0.03100
C111        C  0.24861900  0.82702489  0.67913309     0.05600
C112        C  0.26807770  0.82278946  0.70019479     0.03700
H113        H  0.21139520  0.80131473  0.66879833     0.08800
H114        H  0.28623803  0.83561064  0.70485502     0.07600
O115        O  0.03124204  0.52910233  0.77368916    -0.72400
O116        O  0.97211257  0.46898713  0.77270279    -0.73400
O117        O  0.03191882  0.46957251  0.77295667    -0.62000
O118        O  0.97164465  0.52850541  0.77309085    -0.70500
O119        O  0.97238706  0.52914468  0.72651436    -0.70000
O120        O  0.03181878  0.46979295  0.72637294    -0.61300
O121        O  0.97266105  0.46907846  0.72613268    -0.73800
O122        O  0.03141272  0.52983709  0.72711812    -0.72600
Cu123      Cu  0.00172704  0.49900399  0.77475052     1.04600
Cu124      Cu  0.00208789  0.49945524  0.72490679     1.04300
C125        C  0.04046930  0.53907290  0.75060020     0.93700
C126        C  0.96308048  0.45957191  0.74930074     0.92900
C127        C  0.04125785  0.46037426  0.74958356     0.85000
C128        C  0.96273087  0.53823198  0.74978054     0.91300
N129        N  0.75973049  0.21497497  0.70479159    -0.26800
N130        N  0.73621887  0.20474703  0.71541398    -0.34700
C131        C  0.72837291  0.18208904  0.70039254     0.01500
C132        C  0.74801553  0.17775861  0.67951019     0.07600
C133        C  0.76762126  0.19888999  0.68295338    -0.05500
H134        H  0.70990931  0.16955450  0.70460144     0.08200
H135        H  0.78611944  0.20250999  0.67034251     0.09400
Cu136      Cu  0.71598299  0.22143327  0.75019783     0.44200
Cu137      Cu  0.77993122  0.25065880  0.71979768     0.42000
Cu138      Cu  0.74764577  0.28367283  0.77980163     0.43900
N139        N  0.70027438  0.24209167  0.78520371    -0.34200
N140        N  0.71162344  0.26521357  0.79569779    -0.28400
C141        C  0.69677994  0.27341599  0.81824256    -0.04500
C142        C  0.67518801  0.25438379  0.82224265     0.07700
C143        C  0.67803103  0.23480799  0.80095777     0.01500
H144        H  0.70175808  0.29152864  0.83108070     0.09100
H145        H  0.66500183  0.21652065  0.79727927     0.08200
N146        N  0.78413474  0.29829347  0.76123437    -0.35600
N147        N  0.79576660  0.28657403  0.73894379    -0.27800
C148        C  0.81871992  0.30142766  0.73180217    -0.03100
C149        C  0.82175008  0.32335558  0.75066727     0.05600
C150        C  0.79949581  0.32070925  0.76905757     0.03700
H151        H  0.83230107  0.29649227  0.71431588     0.08800
H152        H  0.79461359  0.33420216  0.78667060     0.07600
O153        O  0.46837952  0.77316671  0.96951946    -0.72400
O154        O  0.52720481  0.77561396  0.02985458    -0.73400
O155        O  0.52749336  0.77470015  0.96992826    -0.62000
O156        O  0.46787190  0.77427788  0.02936209    -0.70500
O157        O  0.46883218  0.72753896  0.03013733    -0.70000
O158        O  0.52861010  0.72795700  0.97085966    -0.61300
O159        O  0.52853524  0.72887472  0.03007601    -0.73800
O160        O  0.46894643  0.72642490  0.97068875    -0.72600
Cu161      Cu  0.49768723  0.77608416  0.99965712     1.04600
Cu162      Cu  0.49874963  0.72607006  0.00047794     1.04300
C163        C  0.45948378  0.74942711  0.96057770     0.93700
C164        C  0.53721156  0.75255539  0.03934020     0.92900
C165        C  0.53736690  0.75136496  0.96101187     0.85000
C166        C  0.45902059  0.75086476  0.03914278     0.91300
O167        O  0.47069996  0.27557672  0.97290292    -0.72400
O168        O  0.53121429  0.27391203  0.03164148    -0.73400
O169        O  0.53050846  0.27396849  0.97242809    -0.62000
O170        O  0.47138305  0.27574657  0.03213549    -0.70500
O171        O  0.47033134  0.22899115  0.03253216    -0.70000
O172        O  0.52912701  0.22722373  0.97216604    -0.61300
O173        O  0.52957067  0.22717994  0.03202631    -0.73800
O174        O  0.46989655  0.22881894  0.97274732    -0.72600
Cu175      Cu  0.50099728  0.27643901  0.00228875     1.04600
Cu176      Cu  0.49967339  0.22641686  0.00237663     1.04300
C177        C  0.46086717  0.25235918  0.96354729     0.93700
C178        C  0.53990752  0.25028113  0.04103396     0.92900
C179        C  0.53911258  0.25039352  0.96288503     0.85000
C180        C  0.46152463  0.25266122  0.04168864     0.91300
N181        N  0.71433551  0.73499398  0.79902617    -0.26800
N182        N  0.70356900  0.75812297  0.78806244    -0.34700
C183        C  0.68082981  0.76570938  0.80287524     0.01500
C184        C  0.67700895  0.74633557  0.82410334     0.07600
C185        C  0.69858770  0.72710403  0.82106297    -0.05500
H186        H  0.66801038  0.78394393  0.79844571     0.08200
H187        H  0.70273769  0.70889713  0.83401816     0.09400
Cu188      Cu  0.72008544  0.77807271  0.75333514     0.44200
Cu189      Cu  0.75017679  0.71574146  0.78350463     0.42000
Cu190      Cu  0.78031280  0.74626338  0.72000223     0.43900
N191        N  0.73935356  0.79432391  0.71811895    -0.34200
N192        N  0.76146587  0.78290246  0.70591662    -0.28400
C193        C  0.76887694  0.79880909  0.68379758    -0.04500
C194        C  0.75039223  0.82112131  0.68198925     0.07700
C195        C  0.73195348  0.81763687  0.70403787     0.01500
H196        H  0.78626628  0.79432184  0.66994820     0.09100
H197        H  0.71448620  0.83103233  0.70955705     0.08200
N198        N  0.79624568  0.71112010  0.74014800    -0.35600
N199        N  0.78569756  0.70045337  0.76349922    -0.27800
C200        C  0.80155895  0.67854625  0.77160490    -0.03100
C201        C  0.82298687  0.67522930  0.75236192     0.05600
C202        C  0.81895550  0.69614133  0.73267682     0.03700
H203        H  0.79765353  0.66594533  0.79008222     0.08800
H204        H  0.83176521  0.70040278  0.71444681     0.07600
N205        N  0.76026908  0.21315427  0.30040059    -0.26800
N206        N  0.73829524  0.20111634  0.28847623    -0.34700
C207        C  0.73063920  0.17856931  0.30370071     0.01500
C208        C  0.74880609  0.17619116  0.32616970     0.07600
C209        C  0.76736913  0.19838650  0.32340176    -0.05500
H210        H  0.71333187  0.16477831  0.29855479     0.08200
H211        H  0.78465254  0.20353869  0.33716721     0.09400
Cu212      Cu  0.72001860  0.21546656  0.25175032     0.44200
Cu213      Cu  0.77924495  0.24930614  0.28493175     0.42000
Cu214      Cu  0.74865074  0.27974593  0.22219959     0.43900
N215        N  0.70504621  0.23404491  0.21540902    -0.34200
N216        N  0.71513511  0.25772534  0.20486437    -0.28400
C217        C  0.70023134  0.26457856  0.18191526    -0.04500
C218        C  0.67988511  0.24422746  0.17781789     0.07700
C219        C  0.68357665  0.22514199  0.19939426     0.01500
H220        H  0.70377937  0.28316538  0.16929933     0.09100
H221        H  0.67125566  0.20647535  0.20354054     0.08200
N222        N  0.78371803  0.29617244  0.24237720    -0.35600
N223        N  0.79475112  0.28507745  0.26528340    -0.27800
C224        C  0.81738024  0.30022061  0.27280626    -0.03100
C225        C  0.82083336  0.32182394  0.25366188     0.05600
C226        C  0.79915001  0.31861864  0.23466584     0.03700
H227        H  0.83049545  0.29559035  0.29071258     0.08800
H228        H  0.79496691  0.33156105  0.21648629     0.07600
N229        N  0.28639892  0.25977163  0.79900849    -0.26800
N230        N  0.29684001  0.23636278  0.78825721    -0.34700
C231        C  0.31926305  0.22852710  0.80343366     0.01500
C232        C  0.32316334  0.24808471  0.82460201     0.07600
C233        C  0.30201769  0.26760685  0.82115112    -0.05500
H234        H  0.33195008  0.21017403  0.79910454     0.08200
H235        H  0.29819069  0.28610532  0.83383250     0.09400
Cu236      Cu  0.28081068  0.21681435  0.75278953     0.44200
Cu237      Cu  0.25144057  0.27994229  0.78313322     0.42000
Cu238      Cu  0.22108299  0.25013186  0.71989903     0.43900
N239        N  0.26212463  0.20211059  0.71632183    -0.34200
N240        N  0.24007738  0.21405243  0.70449983    -0.28400
C241        C  0.23280945  0.19919410  0.68159331    -0.04500
C242        C  0.25129129  0.17699601  0.67878558     0.07700
C243        C  0.26964014  0.17949240  0.70110949     0.01500
H244        H  0.21542846  0.20426287  0.66794354     0.09100
H245        H  0.28698427  0.16575653  0.70615080     0.08200
N246        N  0.20592830  0.28588416  0.73970944    -0.35600
N247        N  0.21673123  0.29638908  0.76301595    -0.27800
C248        C  0.20178485  0.31903571  0.77082790    -0.03100
C249        C  0.18067641  0.32304368  0.75140379     0.05600
C250        C  0.18393051  0.30173992  0.73193473     0.03700
H251        H  0.20610980  0.33166642  0.78921234     0.08800
H252        H  0.17108844  0.29784295  0.71364149     0.07600
N253        N  0.28763975  0.73426291  0.20704886    -0.26800
N254        N  0.29862200  0.75763597  0.21737139    -0.34700
C255        C  0.32061208  0.76531593  0.20149033     0.01500
C256        C  0.32379435  0.74562593  0.18041134     0.07600
C257        C  0.30261969  0.72617410  0.18456438    -0.05500
H258        H  0.33335179  0.78382632  0.20507792     0.08200
H259        H  0.29797898  0.70790605  0.17181565     0.09400
Cu260      Cu  0.28312227  0.77801868  0.25243522     0.44200
Cu261      Cu  0.25183347  0.71550011  0.22302166     0.42000
Cu262      Cu  0.21932460  0.74968343  0.28267422     0.43900
N263        N  0.26299909  0.79530661  0.28677675    -0.34200
N264        N  0.23923771  0.78554224  0.29722188    -0.28400
C265        C  0.23139044  0.80187139  0.31886512    -0.04500
C266        C  0.25138406  0.82259592  0.32238880     0.07700
C267        C  0.27114108  0.81785732  0.30174732     0.01500
H268        H  0.21284428  0.79849908  0.33147628     0.09100
H269        H  0.28995425  0.82993382  0.29776408     0.08200
N270        N  0.20412293  0.71319567  0.26442504    -0.35600
N271        N  0.21554606  0.70119715  0.24216664    -0.27800
C272        C  0.20015864  0.67863189  0.23486336    -0.03100
C273        C  0.17829686  0.67612053  0.25366190     0.05600
C274        C  0.18142347  0.69831573  0.27217177     0.03700
H275        H  0.20473951  0.66491149  0.21733803     0.08800
H276        H  0.16798092  0.70357280  0.28967098     0.07600
C277        C  0.41377073  0.23850124  0.90899570     0.30300
C278        C  0.40141861  0.22260292  0.88750243    -0.36100
C279        C  0.37955931  0.23569344  0.87288342     0.16200
C280        C  0.37026024  0.26247319  0.87916163     0.22100
C281        C  0.38279241  0.27849246  0.90050580    -0.34200
C282        C  0.40490382  0.26551729  0.91492017     0.16100
O283        O  0.43441871  0.23029861  0.92539199    -0.26200
C284        C  0.43910668  0.25245539  0.94180617     0.05900
C285        C  0.42144402  0.27504560  0.93620942    -0.31100
O286        O  0.34920924  0.27036721  0.86309479    -0.22900
C287        C  0.34513912  0.24843628  0.84618842    -0.02900
C288        C  0.36347169  0.22628499  0.85125992    -0.17400
H289        H  0.40837113  0.20150111  0.88253066     0.20600
H290        H  0.37581765  0.29958265  0.90549234     0.19000
H291        H  0.42071334  0.29532909  0.94654281     0.18900
H292        H  0.36459118  0.20610976  0.84076226     0.14800
C293        C  0.63326802  0.25773154  0.12264574     0.30300
C294        C  0.62108946  0.27356821  0.10104434    -0.36100
C295        C  0.59786183  0.26136621  0.08775099     0.16200
C296        C  0.58754627  0.23517582  0.09490528     0.22100
C297        C  0.59962118  0.21939566  0.11665846    -0.34200
C298        C  0.62268962  0.23175645  0.13017407     0.16100
O299        O  0.65488575  0.26533191  0.13810867    -0.26200
C300        C  0.65816727  0.24403354  0.15589682     0.05900
C301        C  0.63871136  0.22252429  0.15195433    -0.31100
O302        O  0.56589028  0.22769529  0.07938651    -0.22900
C303        C  0.56209489  0.24955391  0.06235671    -0.02900
C304        C  0.58130987  0.27114522  0.06666265    -0.17400
H305        H  0.62905775  0.29406478  0.09514423     0.20600
H306        H  0.59153557  0.19898253  0.12268746     0.19000
H307        H  0.63656595  0.20305641  0.16353457     0.18900
H308        H  0.58301795  0.29096441  0.05560285     0.14800
C309        C  0.62121948  0.76048625  0.86980935     0.30300
C310        C  0.59943941  0.77632207  0.88175139    -0.36100
C311        C  0.58542774  0.76377125  0.90439955     0.16200
C312        C  0.59211449  0.73730627  0.91429709     0.22100
C313        C  0.61398767  0.72159792  0.90249795    -0.34200
C314        C  0.62819882  0.73426906  0.88011610     0.16100
O315        O  0.63727477  0.76814990  0.84863274    -0.26200
C316        C  0.65485169  0.74662661  0.84551186     0.05900
C317        C  0.65019892  0.72497643  0.86454653    -0.31100
O318        O  0.57605521  0.72942708  0.93534857    -0.22900
C319        C  0.55908302  0.75125396  0.93925338    -0.02900
C320        C  0.56397612  0.77329815  0.92068333    -0.17400
H321        H  0.59391239  0.79700452  0.87403095     0.20600
H322        H  0.61959194  0.70096491  0.91029038     0.19000
H323        H  0.66135681  0.70526442  0.86659687     0.18900
H324        H  0.55308412  0.79322004  0.91921606     0.14800
C325        C  0.37514128  0.76089392  0.13021147     0.30300
C326        C  0.39388162  0.77786843  0.11511267    -0.36100
C327        C  0.40945782  0.76422124  0.09421589     0.16200
C328        C  0.40701753  0.73577202  0.08877075     0.22100
C329        C  0.38806187  0.71886208  0.10367132    -0.34200
C330        C  0.37224227  0.73257557  0.12433206     0.16100
O331        O  0.35866745  0.76920259  0.15079275    -0.26200
C332        C  0.34481400  0.74597601  0.15794042     0.05900
C333        C  0.35230843  0.72255718  0.14213587    -0.31100
O334        O  0.42407350  0.72728614  0.06873454    -0.22900
C335        C  0.43741526  0.75065284  0.06106718    -0.02900
C336        C  0.42911025  0.77430705  0.07612965    -0.17400
H337        H  0.39618275  0.80013225  0.11938554     0.20600
H338        H  0.38582594  0.69657894  0.09946727     0.19000
H339        H  0.34447019  0.70123236  0.14378611     0.18900
H340        H  0.43673907  0.79569352  0.07426595     0.14800
C341        C  0.62193408  0.24015694  0.87086777     0.30300
C342        C  0.60083951  0.22418676  0.88381718    -0.36100
C343        C  0.58710592  0.23706976  0.90642618     0.16200
C344        C  0.59346084  0.26395221  0.91544834     0.22100
C345        C  0.61478266  0.27979076  0.90272009    -0.34200
C346        C  0.62869328  0.26679901  0.88028274     0.16100
O347        O  0.63723815  0.23234622  0.84920830    -0.26200
C348        C  0.65416599  0.25417495  0.84480788     0.05900
C349        C  0.64985836  0.27620217  0.86357042    -0.31100
O350        O  0.57742805  0.27218260  0.93640511    -0.22900
C351        C  0.56082087  0.25016923  0.94109050    -0.02900
C352        C  0.56595850  0.22764816  0.92316670    -0.17400
H353        H  0.59544456  0.20323412  0.87669071     0.20600
H354        H  0.62004657  0.30081973  0.90972319     0.19000
H355        H  0.66055243  0.29628088  0.86457774     0.18900
H356        H  0.55530899  0.20753464  0.92229185     0.14800
C357        C  0.12599460  0.37025144  0.73805246     0.30300
C358        C  0.10450671  0.38285997  0.72245017    -0.36100
C359        C  0.09010149  0.40480181  0.73579574     0.16200
C360        C  0.09614756  0.41349009  0.76276683     0.22100
C361        C  0.11780564  0.40106246  0.77825810    -0.34200
C362        C  0.13241647  0.37934276  0.76479659     0.16100
O363        O  0.14205021  0.34927169  0.72978219    -0.26200
C364        C  0.15909709  0.34504385  0.75143326     0.05900
C365        C  0.15413172  0.36319124  0.77377597    -0.31100
O366        O  0.07967635  0.43402639  0.77131207    -0.22900
C367        C  0.06311614  0.43875329  0.74940314    -0.02900
C368        C  0.06868471  0.42128710  0.72667297    -0.17400
H369        H  0.09938920  0.37604991  0.70140086     0.20600
H370        H  0.12289078  0.40783629  0.79932636     0.19000
H371        H  0.16473436  0.36412771  0.79381330     0.18900
H372        H  0.05824840  0.42066008  0.70652944     0.14800
C373        C  0.87908409  0.62952820  0.73932942     0.30300
C374        C  0.90071271  0.61713312  0.72369872    -0.36100
C375        C  0.91484094  0.59481734  0.73672090     0.16200
C376        C  0.90843624  0.58563941  0.76343463     0.22100
C377        C  0.88673944  0.59792729  0.77897537    -0.34200
C378        C  0.87238655  0.61997288  0.76582761     0.16100
O379        O  0.86281489  0.65037609  0.73114028    -0.26200
C380        C  0.84537540  0.65403442  0.75260624     0.05900
C381        C  0.85035047  0.63570578  0.77475833    -0.31100
O382        O  0.92449896  0.56467179  0.77164784    -0.22900
C383        C  0.94116825  0.56013891  0.74978671    -0.02900
C384        C  0.93609341  0.57818500  0.72740922    -0.17400
H385        H  0.90598643  0.62422106  0.70278963     0.20600
H386        H  0.88130765  0.59067891  0.79978797     0.19000
H387        H  0.83932203  0.63415228  0.79452309     0.18900
H388        H  0.94670645  0.57905136  0.70736786     0.14800
C389        C  0.87782279  0.36941536  0.73791109     0.30300
C390        C  0.89982057  0.38152660  0.72254296    -0.36100
C391        C  0.91426771  0.40357787  0.73576817     0.16200
C392        C  0.90779815  0.41281317  0.76244602     0.22100
C393        C  0.88563034  0.40088723  0.77770643    -0.34200
C394        C  0.87096106  0.37907744  0.76433485     0.16100
O395        O  0.86157218  0.34852184  0.72962728    -0.26200
C396        C  0.84391875  0.34491703  0.75092559     0.05900
C397        C  0.84871575  0.36340770  0.77306049    -0.31100
O398        O  0.92426899  0.43346403  0.77087362    -0.22900
C399        C  0.94126562  0.43774754  0.74917016    -0.02900
C400        C  0.93597797  0.41982776  0.72670658    -0.17400
H401        H  0.90523236  0.37432206  0.70170383     0.20600
H402        H  0.88016176  0.40814971  0.79851219     0.19000
H403        H  0.83761824  0.36490340  0.79279328     0.18900
H404        H  0.94669985  0.41883677  0.70673123     0.14800
C405        C  0.37048395  0.73704430  0.87475230     0.30300
C406        C  0.38356756  0.72111257  0.89577726    -0.36100
C407        C  0.40514150  0.73467246  0.91053734     0.16200
C408        C  0.41306558  0.76211046  0.90518024     0.22100
C409        C  0.40023649  0.77789941  0.88393484    -0.34200
C410        C  0.37885844  0.76426481  0.86902544     0.16100
O411        O  0.34963734  0.72870961  0.85858964    -0.26200
C412        C  0.34479375  0.75080091  0.84215347     0.05900
C413        C  0.36239089  0.77350005  0.84765600    -0.31100
O414        O  0.43310578  0.77091614  0.92206299    -0.22900
C415        C  0.43830255  0.74875572  0.93826981    -0.02900
C416        C  0.42165900  0.72552946  0.93196654    -0.17400
H417        H  0.37727722  0.69971466  0.90039138     0.20600
H418        H  0.40638035  0.79937076  0.87946008     0.19000
H419        H  0.36278550  0.79391525  0.83760225     0.18900
H420        H  0.42144618  0.70511933  0.94204428     0.14800
C421        C  0.08626609  0.59523253  0.73776155     0.30300
C422        C  0.09868926  0.61692660  0.72216148    -0.36100
C423        C  0.12012551  0.63191135  0.73565042     0.16200
C424        C  0.12891804  0.62583363  0.76254822     0.22100
C425        C  0.11619135  0.60442892  0.77831760    -0.34200
C426        C  0.09458894  0.58959348  0.76490848     0.16100
O427        O  0.06629329  0.57814586  0.72904794    -0.26200
C428        C  0.06156109  0.56155938  0.75100375     0.05900
C429        C  0.07843628  0.56778958  0.77396448    -0.31100
O430        O  0.15000012  0.64185073  0.77064502    -0.22900
C431        C  0.15458143  0.65856017  0.74873951    -0.02900
C432        C  0.13653416  0.65342855  0.72641515    -0.17400
H433        H  0.09228155  0.62160801  0.70090272     0.20600
H434        H  0.12284497  0.59951046  0.79944711     0.19000
H435        H  0.07899477  0.55744931  0.79417503     0.18900
H436        H  0.13598076  0.66364745  0.70614856     0.14800
C437        C  0.76207419  0.12956234  0.38158744     0.30300
C438        C  0.77768262  0.11707134  0.40318766    -0.36100
C439        C  0.76484791  0.09438601  0.41697366     0.16200
C440        C  0.73830049  0.08494542  0.41029157     0.22100
C441        C  0.72280279  0.09727711  0.38855543    -0.34200
C442        C  0.73579129  0.11968789  0.37451916     0.16100
O443        O  0.77006639  0.15087460  0.36576058    -0.26200
C444        C  0.74872314  0.15450437  0.34817430     0.05900
C445        C  0.72684002  0.13566656  0.35262541    -0.31100
O446        O  0.73017162  0.06377519  0.42620449    -0.22900
C447        C  0.75193676  0.05935402  0.44304441    -0.02900
C448        C  0.77416198  0.07768468  0.43820652    -0.17400
H449        H  0.79842767  0.12441896  0.40874609     0.20600
H450        H  0.70211090  0.08984361  0.38290939     0.19000
H451        H  0.70718385  0.13403291  0.34142382     0.18900
H452        H  0.79407680  0.07874845  0.44902034     0.14800
C453        C  0.73864418  0.91271181  0.59862761     0.30300
C454        C  0.72393780  0.90111742  0.62133372    -0.36100
C455        C  0.73714919  0.87872473  0.63517306     0.16200
C456        C  0.76290117  0.86829074  0.62707435     0.22100
C457        C  0.77773849  0.88009809  0.60462278    -0.34200
C458        C  0.76468260  0.90265017  0.59098376     0.16100
O459        O  0.73020269  0.93361278  0.58252305    -0.26200
C460        C  0.75130209  0.93714482  0.56462553     0.05900
C461        C  0.77333439  0.91855684  0.56894925    -0.31100
O462        O  0.77100142  0.84676667  0.64246049    -0.22900
C463        C  0.75027491  0.84349899  0.66079237    -0.02900
C464        C  0.72869376  0.86286035  0.65735704    -0.17400
H465        H  0.70360877  0.90892245  0.62768844     0.20600
H466        H  0.79800419  0.87219788  0.59818521     0.19000
H467        H  0.79275513  0.91688136  0.55734759     0.18900
H468        H  0.70940305  0.86466700  0.66914438     0.14800
C469        C  0.73783866  0.08617835  0.59571409     0.30300
C470        C  0.72143513  0.10020060  0.61569578    -0.36100
C471        C  0.73498693  0.12142985  0.63096745     0.16200
C472        C  0.76268342  0.12863180  0.62666014     0.22100
C473        C  0.77918311  0.11442067  0.60684032    -0.34200
C474        C  0.76570589  0.09294701  0.59178785     0.16100
O475        O  0.72934581  0.06580652  0.57897854    -0.26200
C476        C  0.75213097  0.05924203  0.56434208     0.05900
C477        C  0.77543124  0.07534878  0.57146400    -0.31100
O478        O  0.77091792  0.14945839  0.64300337    -0.22900
C479        C  0.74827424  0.15544545  0.65815001    -0.02900
C480        C  0.72531414  0.13863686  0.65161342    -0.17400
H481        H  0.69963402  0.09492577  0.61909231     0.20600
H482        H  0.80097213  0.11972508  0.60340818     0.19000
H483        H  0.79632105  0.07444760  0.56267209     0.18900
H484        H  0.70448539  0.13920721  0.66056353     0.14800
C485        C  0.23778891  0.87134749  0.37563018     0.30300
C486        C  0.22143157  0.88607950  0.39512114    -0.36100
C487        C  0.23554561  0.90644354  0.41102332     0.16200
C488        C  0.26387028  0.91171755  0.40823585     0.22100
C489        C  0.28019957  0.89707085  0.38864092    -0.34200
C490        C  0.26600280  0.87697765  0.37245603     0.16100
O491        O  0.22891191  0.85147109  0.35852056    -0.26200
C492        C  0.25166709  0.84453278  0.34400963     0.05900
C493        C  0.27534893  0.85974883  0.35169765    -0.31100
O494        O  0.27270840  0.93169860  0.42527468    -0.22900
C495        C  0.24968091  0.93945431  0.43892940    -0.02900
C496        C  0.22593747  0.92449080  0.43092952    -0.17400
H497        H  0.19923502  0.88208142  0.39757655     0.20600
H498        H  0.30235251  0.90121068  0.38603985     0.19000
H499        H  0.29640750  0.85809788  0.34344206     0.18900
H500        H  0.20472288  0.92664131  0.43866749     0.14800
C501        C  0.23757375  0.13079515  0.62307183     0.30300
C502        C  0.22213909  0.11903448  0.60090735    -0.36100
C503        C  0.23490575  0.09657161  0.58672151     0.16200
C504        C  0.26117304  0.08660990  0.59366010     0.22100
C505        C  0.27640857  0.09809548  0.61605070    -0.34200
C506        C  0.26354883  0.12036596  0.63038013     0.16100
O507        O  0.22985527  0.15214019  0.63898315    -0.26200
C508        C  0.25106832  0.15523937  0.65683974     0.05900
C509        C  0.27258050  0.13599608  0.65252240    -0.31100
O510        O  0.26946258  0.06601723  0.57711491    -0.22900
C511        C  0.24811224  0.06252137  0.55954909    -0.02900
C512        C  0.22593264  0.08080926  0.56460340    -0.17400
H513        H  0.20169247  0.12691879  0.59506310     0.20600
H514        H  0.29692536  0.09031765  0.62178912     0.19000
H515        H  0.29212962  0.13400357  0.66384028     0.18900
H516        H  0.20630934  0.08248330  0.55335062     0.14800
C517        C  0.23520706  0.87465804  0.62467631     0.30300
C518        C  0.21983252  0.88699239  0.60284444    -0.36100
C519        C  0.23338481  0.90860406  0.58811466     0.16200
C520        C  0.26032169  0.91728543  0.59422973     0.22100
C521        C  0.27555693  0.90520670  0.61628953    -0.34200
C522        C  0.26190376  0.88377446  0.63118369     0.16100
O523        O  0.22690093  0.85366056  0.64073137    -0.26200
C524        C  0.24847481  0.84943343  0.65788188     0.05900
C525        C  0.27078296  0.86765575  0.65300363    -0.31100
O526        O  0.26913939  0.93736688  0.57732737    -0.22900
C527        C  0.24744337  0.94181012  0.56040286    -0.02900
C528        C  0.22458171  0.92460401  0.56616827    -0.17400
H529        H  0.19885826  0.88009503  0.59759107     0.20600
H530        H  0.29663874  0.91191260  0.62135803     0.19000
H531        H  0.29084387  0.86847690  0.66355168     0.18900
H532        H  0.20456177  0.92382568  0.55552817     0.14800
C533        C  0.59172452  0.73958566  0.08675681     0.30300
C534        C  0.61320892  0.72399881  0.09945085    -0.36100
C535        C  0.62744762  0.73739676  0.12145476     0.16200
C536        C  0.62083635  0.76417278  0.13055062     0.22100
C537        C  0.59947650  0.77983872  0.11771855    -0.34200
C538        C  0.58545166  0.76657189  0.09548338     0.16100
O539        O  0.57559931  0.73109113  0.06595711    -0.26200
C540        C  0.55900003  0.75303329  0.06107322     0.05900
C541        C  0.56424465  0.77576716  0.07871617    -0.31100
O542        O  0.63681008  0.77255194  0.15153087    -0.22900
C543        C  0.65400757  0.75094136  0.15578714    -0.02900
C544        C  0.64915865  0.72848412  0.13766941    -0.17400
H545        H  0.61849096  0.70293252  0.09260771     0.20600
H546        H  0.59424630  0.80093152  0.12451464     0.19000
H547        H  0.55367533  0.79590799  0.07934837     0.18900
H548        H  0.66001905  0.70852372  0.13660089     0.14800
C549        C  0.73769761  0.91247994  0.40907486     0.30300
C550        C  0.72216182  0.90043190  0.38716986    -0.36100
C551        C  0.73603332  0.87991414  0.37124434     0.16200
C552        C  0.76317636  0.87153588  0.37672406     0.22100
C553        C  0.77878697  0.88374008  0.39847823    -0.34200
C554        C  0.76504284  0.90451121  0.41416592     0.16100
O555        O  0.72900906  0.93227561  0.42639353    -0.26200
C556        C  0.75118906  0.93722864  0.44255216     0.05900
C557        C  0.77421592  0.92061791  0.43589463    -0.31100
O558        O  0.77182252  0.85162976  0.35952736    -0.22900
C559        C  0.75003167  0.84740884  0.34264929    -0.02900
C560        C  0.72720911  0.86448732  0.34887242    -0.17400
H561        H  0.70081921  0.90671106  0.38276851     0.20600
H562        H  0.80017644  0.87755948  0.40279152     0.19000
H563        H  0.79470768  0.92051512  0.44562323     0.18900
H564        H  0.70694954  0.86511346  0.33870103     0.14800
C565        C  0.12972879  0.62284324  0.23901188     0.30300
C566        C  0.11551575  0.60311107  0.22235293    -0.36100
C567        C  0.09393449  0.58816538  0.23563168     0.16200
C568        C  0.08711777  0.59203050  0.26350403     0.22100
C569        C  0.10120800  0.61189650  0.28011098    -0.34200
C570        C  0.12248213  0.62716343  0.26670806     0.16100
O571        O  0.15043191  0.63927580  0.23083869    -0.26200
C572        C  0.15627154  0.65454230  0.25348892     0.05900
C573        C  0.13951836  0.64798923  0.27642857    -0.31100
O574        O  0.06644624  0.57556043  0.27169564    -0.22900
C575        C  0.05971925  0.56121037  0.24869235    -0.02900
C576        C  0.07607035  0.56820352  0.22558232    -0.17400
H577        H  0.12078737  0.59978920  0.20052865     0.20600
H578        H  0.09582740  0.61534141  0.30188986     0.19000
H579        H  0.13997885  0.65709562  0.29723425     0.18900
H580        H  0.07509162  0.55961846  0.20457319     0.14800
C581        C  0.91279692  0.40569822  0.26219361     0.30300
C582        C  0.90152061  0.38307168  0.27740814    -0.36100
C583        C  0.87857595  0.36930800  0.26509429     0.16200
C584        C  0.86733585  0.37739097  0.23968383     0.22100
C585        C  0.87878361  0.39984046  0.22434703    -0.34200
C586        C  0.90191705  0.41340552  0.23650516     0.16100
O587        O  0.93406328  0.42170558  0.26988287    -0.26200
C588        C  0.93707412  0.43964554  0.24866700     0.05900
C589        C  0.91773948  0.43540853  0.22725579    -0.31100
O590        O  0.84560925  0.36186250  0.23231474    -0.22900
C591        C  0.84296881  0.34347634  0.25319765    -0.02900
C592        C  0.86297829  0.34706353  0.27414185    -0.17400
H593        H  0.91000397  0.37668567  0.29746272     0.20600
H594        H  0.87024976  0.40627770  0.20433173     0.19000
H595        H  0.91544563  0.44712501  0.20793552     0.18900
H596        H  0.86552200  0.33518912  0.29332850     0.14800
C597        C  0.87638468  0.63270686  0.26136615     0.30300
C598        C  0.89777358  0.61978593  0.27690744    -0.36100
C599        C  0.91168760  0.59745106  0.26362971     0.16200
C600        C  0.90531376  0.58875902  0.23674099     0.22100
C601        C  0.88382461  0.60154764  0.22128754    -0.34200
C602        C  0.86964910  0.62358633  0.23471405     0.16100
O603        O  0.86045761  0.65376299  0.26976152    -0.26200
C604        C  0.84314336  0.65798277  0.24830409     0.05900
C605        C  0.84786839  0.63979264  0.22593498    -0.31100
O606        O  0.92120737  0.56774315  0.22826442    -0.22900
C607        C  0.93773300  0.56265351  0.25012608    -0.02900
C608        C  0.93272503  0.58041566  0.27277832    -0.17400
H609        H  0.90305463  0.62653934  0.29793374     0.20600
H610        H  0.87843043  0.59468283  0.20032521     0.19000
H611        H  0.83692620  0.63872575  0.20608659     0.18900
H612        H  0.94327028  0.58088219  0.29286797     0.14800
C613        C  0.36935219  0.26494955  0.12385233     0.30300
C614        C  0.38278286  0.28056487  0.10282764    -0.36100
C615        C  0.40516899  0.26714229  0.08929396     0.16200
C616        C  0.41351558  0.24007858  0.09571952     0.22100
C617        C  0.40027964  0.22458398  0.11694353    -0.34200
C618        C  0.37810263  0.23812064  0.13067551     0.16100
O619        O  0.34796093  0.27335133  0.13919398    -0.26200
C620        C  0.34312103  0.25169714  0.15618547     0.05900
C621        C  0.36125117  0.22920839  0.15187110    -0.31100
O622        O  0.43440667  0.23136435  0.07987263    -0.22900
C623        C  0.43972817  0.25326193  0.06334319    -0.02900
C624        C  0.42229811  0.27616587  0.06833281    -0.17400
H625        H  0.37623616  0.30167720  0.09740160     0.20600
H626        H  0.40677056  0.20344119  0.12232220     0.19000
H627        H  0.36186453  0.20919606  0.16268493     0.18900
H628        H  0.42196672  0.29627277  0.05767072     0.14800
C629        C  0.26175630  0.12522556  0.36863037     0.30300
C630        C  0.27824677  0.10538195  0.38285188    -0.36100
C631        C  0.26456640  0.08984820  0.40379279     0.16200
C632        C  0.23653669  0.09337645  0.41002921     0.22100
C633        C  0.22013827  0.11333335  0.39597570    -0.34200
C634        C  0.23387589  0.12906791  0.37530604     0.16100
O635        O  0.27017188  0.14209119  0.34835434    -0.26200
C636        C  0.24743875  0.15707096  0.34222077     0.05900
C637        C  0.22425809  0.14991948  0.35835586    -0.31100
O638        O  0.22790395  0.07641259  0.43007590    -0.22900
C639        C  0.25073101  0.06198903  0.43698733    -0.02900
C640        C  0.27422859  0.06948170  0.42140220    -0.17400
H641        H  0.30018654  0.10233799  0.37799651     0.20600
H642        H  0.19821713  0.11643275  0.40088174     0.19000
H643        H  0.20334221  0.15866164  0.35756577     0.18900
H644        H  0.29522438  0.06099089  0.42271871     0.14800
C645        C  0.12942189  0.37980198  0.23644659     0.30300
C646        C  0.11656638  0.40109147  0.22067722    -0.36100
C647        C  0.09384836  0.41462843  0.23351423     0.16200
C648        C  0.08473838  0.40796427  0.26018380     0.22100
C649        C  0.09742083  0.38653574  0.27582441    -0.34200
C650        C  0.11986122  0.37276397  0.26285312     0.16100
O651        O  0.15089948  0.36430776  0.22854973    -0.26200
C652        C  0.15492491  0.34700411  0.25008298     0.05900
C653        C  0.13621009  0.35125087  0.27199915    -0.31100
O654        O  0.06357940  0.42369135  0.26837226    -0.22900
C655        C  0.05881603  0.44037734  0.24654353    -0.02900
C656        C  0.07691107  0.43566810  0.22417758    -0.17400
H657        H  0.12371252  0.40663689  0.19986181     0.20600
H658        H  0.09026114  0.38097064  0.29663036     0.19000
H659        H  0.13491564  0.34019609  0.29179270     0.18900
H660        H  0.07774342  0.44650350  0.20423475     0.14800
loop_ 
_geom_bond_atom_site_label_1 
_geom_bond_atom_site_label_2 
_geom_bond_distance 
_geom_bond_site_symmetry_2 
_ccdc_geom_bond_type 
N1            N2   1.323       .  A
N1            C5   1.344       .  A
N1           Cu9   2.070       .  S
N2            C3   1.343       .  A
N2           Cu8   2.069       .  S
C3            C4   1.381       .  A
C3            H6   1.082       .  S
C4            C5   1.381       .  A
C4          C652   1.466       .  S
C5            H7   1.082       .  S
Cu8          N11   2.068       .  S
Cu9          N19   2.071       .  S
Cu10         N12   2.067       .  S
Cu10         N18   2.067       .  S
N11          N12   1.321       .  A
N11          C15   1.344       .  A
N12          C13   1.345       .  A
C13          C14   1.381       .  A
C13          H16   1.082       .  S
C14          C15   1.383       .  A
C14         C636   1.468       .  S
C15          H17   1.082       .  S
N18          N19   1.322       .  A
N18          C22   1.343       .  A
N19          C20   1.345       .  A
C20          C21   1.382       .  A
C20          H23   1.082       .  S
C21          C22   1.381       .  A
C21         C620   1.468       .  S
C22          H24   1.082       .  S
O25         Cu33   2.015       .  S
O25          C35   1.278       .  A
O26         Cu33   2.012   1_455  S
O26          C36   1.278       .  A
O27         Cu33   2.007   1_455  S
O27          C37   1.277       .  A
O28         Cu33   2.007       .  S
O28          C38   1.277       .  A
O29         Cu34   2.010       .  S
O29          C38   1.278       .  A
O30         Cu34   2.003   1_455  S
O30          C37   1.276       .  A
O31         Cu34   2.007   1_455  S
O31          C36   1.277       .  A
O32         Cu34   2.010       .  S
O32          C35   1.277       .  A
Cu33        Cu34   2.377       .  S
C35         C588   1.469       .  S
C36         C575   1.467       .  S
C37         C655   1.463       .  S
C38         C607   1.467       .  S
N39          N40   1.322       .  A
N39          C43   1.344       .  A
N39         Cu47   2.072       .  S
N40          C41   1.346       .  A
N40         Cu46   2.075       .  S
C41          C42   1.383       .  A
C41          H44   1.082       .  S
C42          C43   1.383       .  A
C42         C543   1.471       .  S
C43          H45   1.082       .  S
Cu46         N49   2.074       .  S
Cu47         N57   2.072       .  S
Cu48         N50   2.074       .  S
Cu48         N56   2.074       .  S
N49          N50   1.323       .  A
N49          C53   1.345       .  A
N50          C51   1.345       .  A
C51          C52   1.381       .  A
C51          H54   1.082       .  S
C52          C53   1.383       .  A
C52         C559   1.468       .  S
C53          H55   1.082       .  S
N56          N57   1.322       .  A
N56          C60   1.346       .  A
N57          C58   1.344       .  A
C58          C59   1.383       .  A
C58          H61   1.082       .  S
C59          C60   1.382       .  A
C59         C604   1.470       .  S
C60          H62   1.082       .  S
O63         Cu71   2.011   1_565  S
O63          C73   1.277       .  A
O64         Cu71   2.009       .  S
O64          C74   1.277       .  A
O65         Cu71   2.006   1_565  S
O65          C75   1.277       .  A
O66         Cu71   2.011       .  S
O66          C76   1.278       .  A
O67         Cu72   2.005       .  S
O67          C76   1.277       .  A
O68         Cu72   2.007   1_565  S
O68          C75   1.278       .  A
O69         Cu72   2.005       .  S
O69          C74   1.277       .  A
O70         Cu72   2.000   1_565  S
O70          C73   1.277       .  A
Cu71        Cu72   2.378       .  S
C73         C495   1.465       .  S
C74         C511   1.465       .  S
C75         C527   1.465       .  S
C76         C639   1.466       .  S
O77         Cu85   2.005       .  S
O77          C87   1.277       .  A
O78         Cu85   2.008   1_545  S
O78          C88   1.278       .  A
O79         Cu85   2.005   1_545  S
O79          C89   1.277       .  A
O80         Cu85   2.004       .  S
O80          C90   1.277       .  A
O81         Cu86   2.010       .  S
O81          C90   1.277       .  A
O82         Cu86   2.008   1_545  S
O82          C89   1.277       .  A
O83         Cu86   2.010   1_545  S
O83          C88   1.277       .  A
O84         Cu86   2.011       .  S
O84          C87   1.277       .  A
Cu85        Cu86   2.377       .  S
C87         C460   1.465       .  S
C88         C447   1.467       .  S
C89         C476   1.466       .  S
C90         C556   1.466       .  S
N91          N92   1.323       .  A
N91          C95   1.345       .  A
N91         Cu99   2.075       .  S
N92          C93   1.345       .  A
N92         Cu98   2.075       .  S
C93          C94   1.382       .  A
C93          H96   1.082       .  S
C94          C95   1.383       .  A
C94         C431   1.469       .  S
C95          H97   1.082       .  S
Cu98        N101   2.075       .  S
Cu99        N109   2.074       .  S
Cu100       N102   2.071       .  S
Cu100       N108   2.071       .  S
N101        N102   1.322       .  A
N101        C105   1.346       .  A
N102        C103   1.344       .  A
C103        C104   1.383       .  A
C103        H106   1.082       .  S
C104        C105   1.382       .  A
C104        C412   1.470       .  S
C105        H107   1.082       .  S
N108        N109   1.322       .  A
N108        C112   1.344       .  A
N109        C110   1.346       .  A
C110        C111   1.383       .  A
C110        H113   1.082       .  S
C111        C112   1.383       .  A
C111        C524   1.470       .  S
C112        H114   1.082       .  S
O115       Cu123   2.007       .  S
O115        C125   1.277       .  A
O116       Cu123   2.009   1_655  S
O116        C126   1.277       .  A
O117       Cu123   2.011       .  S
O117        C127   1.277       .  A
O118       Cu123   2.009   1_655  S
O118        C128   1.277       .  A
O119       Cu124   2.002   1_655  S
O119        C128   1.277       .  A
O120       Cu124   2.002       .  S
O120        C127   1.277       .  A
O121       Cu124   2.013   1_655  S
O121        C126   1.278       .  A
O122       Cu124   2.012       .  S
O122        C125   1.278       .  A
Cu123      Cu124   2.377       .  S
C125        C428   1.467       .  S
C126        C399   1.468       .  S
C127        C367   1.465       .  S
C128        C383   1.464       .  S
N129        N130   1.323       .  A
N129        C133   1.345       .  A
N129       Cu137   2.076       .  S
N130        C131   1.345       .  A
N130       Cu136   2.077       .  S
C131        C132   1.383       .  A
C131        H134   1.082       .  S
C132        C133   1.381       .  A
C132        C479   1.470       .  S
C133        H135   1.082       .  S
Cu136       N139   2.076       .  S
Cu137       N147   2.076       .  S
Cu138       N140   2.073       .  S
Cu138       N146   2.073       .  S
N139        N140   1.322       .  A
N139        C143   1.346       .  A
N140        C141   1.345       .  A
C141        C142   1.383       .  A
C141        H144   1.082       .  S
C142        C143   1.383       .  A
C142        C348   1.471       .  S
C143        H145   1.082       .  S
N146        N147   1.322       .  A
N146        C150   1.345       .  A
N147        C148   1.346       .  A
C148        C149   1.383       .  A
C148        H151   1.082       .  S
C149        C150   1.383       .  A
C149        C396   1.472       .  S
C150        H152   1.082       .  S
O153       Cu161   2.010       .  S
O153        C163   1.277       .  A
O154       Cu161   2.015   1_554  S
O154        C164   1.278       .  A
O155       Cu161   2.010       .  S
O155        C165   1.277       .  A
O156       Cu161   2.010   1_554  S
O156        C166   1.278       .  A
O157       Cu162   2.011       .  S
O157        C166   1.277       .  A
O158       Cu162   2.009   1_556  S
O158        C165   1.277       .  A
O159       Cu162   2.008       .  S
O159        C164   1.277       .  A
O160       Cu162   2.010   1_556  S
O160        C163   1.278       .  A
Cu161      Cu162   2.377   1_556  S
C163        C415   1.468       .  S
C164        C540   1.468       .  S
C165        C319   1.467       .  S
C166        C335   1.469       .  S
O167       Cu175   2.014   1_556  S
O167        C177   1.278       .  A
O168       Cu175   2.014       .  S
O168        C178   1.278       .  A
O169       Cu175   2.006   1_556  S
O169        C179   1.277       .  A
O170       Cu175   2.006       .  S
O170        C180   1.277       .  A
O171       Cu176   2.011       .  S
O171        C180   1.277       .  A
O172       Cu176   2.013   1_556  S
O172        C179   1.278       .  A
O173       Cu176   2.009       .  S
O173        C178   1.277       .  A
O174       Cu176   2.008   1_556  S
O174        C177   1.277       .  A
Cu175      Cu176   2.377       .  S
C177        C284   1.468       .  S
C178        C303   1.469       .  S
C179        C351   1.468       .  S
C180        C623   1.466       .  S
N181        N182   1.322       .  A
N181        C185   1.345       .  A
N181       Cu189   2.077       .  S
N182        C183   1.344       .  A
N182       Cu188   2.065       .  S
C183        C184   1.381       .  A
C183        H186   1.082       .  S
C184        C185   1.385       .  A
C184        C316   1.470       .  S
C185        H187   1.082       .  S
Cu188       N191   2.065       .  S
Cu189       N199   2.077       .  S
Cu190       N192   2.072       .  S
Cu190       N198   2.072       .  S
N191        N192   1.322       .  A
N191        C195   1.343       .  A
N192        C193   1.345       .  A
C193        C194   1.382       .  A
C193        H196   1.082       .  S
C194        C195   1.381       .  A
C194        C463   1.467       .  S
C195        H197   1.082       .  S
N198        N199   1.323       .  A
N198        C202   1.345       .  A
N199        C200   1.344       .  A
C200        C201   1.383       .  A
C200        H203   1.082       .  S
C201        C202   1.381       .  A
C201        C380   1.469       .  S
C202        H204   1.082       .  S
N205        N206   1.322       .  A
N205        C209   1.346       .  A
N205       Cu213   2.076       .  S
N206        C207   1.345       .  A
N206       Cu212   2.073       .  S
C207        C208   1.383       .  A
C207        H210   1.082       .  S
C208        C209   1.383       .  A
C208        C444   1.471       .  S
C209        H211   1.082       .  S
Cu212       N215   2.073       .  S
Cu213       N223   2.077       .  S
Cu214       N216   2.081       .  S
Cu214       N222   2.081       .  S
N215        N216   1.323       .  A
N215        C219   1.346       .  A
N216        C217   1.346       .  A
C217        C218   1.383       .  A
C217        H220   1.082       .  S
C218        C219   1.383       .  A
C218        C300   1.472       .  S
C219        H221   1.082       .  S
N222        N223   1.323       .  A
N222        C226   1.347       .  A
N223        C224   1.345       .  A
C224        C225   1.384       .  A
C224        H227   1.082       .  S
C225        C226   1.384       .  A
C225        C591   1.474       .  S
C226        H228   1.082       .  S
N229        N230   1.322       .  A
N229        C233   1.345       .  A
N229       Cu237   2.069       .  S
N230        C231   1.345       .  A
N230       Cu236   2.075       .  S
C231        C232   1.384       .  A
C231        H234   1.082       .  S
C232        C233   1.381       .  A
C232        C287   1.470       .  S
C233        H235   1.082       .  S
Cu236       N239   2.075       .  S
Cu237       N247   2.069       .  S
Cu238       N240   2.074       .  S
Cu238       N246   2.074       .  S
N239        N240   1.322       .  A
N239        C243   1.345       .  A
N240        C241   1.345       .  A
C241        C242   1.382       .  A
C241        H244   1.082       .  S
C242        C243   1.383       .  A
C242        C508   1.470       .  S
C243        H245   1.082       .  S
N246        N247   1.322       .  A
N246        C250   1.345       .  A
N247        C248   1.344       .  A
C248        C249   1.382       .  A
C248        H251   1.082       .  S
C249        C250   1.382       .  A
C249        C364   1.468       .  S
C250        H252   1.082       .  S
N253        N254   1.322       .  A
N253        C257   1.345       .  A
N253       Cu261   2.072       .  S
N254        C255   1.345       .  A
N254       Cu260   2.069       .  S
C255        C256   1.381       .  A
C255        H258   1.082       .  S
C256        C257   1.383       .  A
C256        C332   1.468       .  S
C257        H259   1.082       .  S
Cu260       N263   2.068       .  S
Cu261       N271   2.072       .  S
Cu262       N264   2.069       .  S
Cu262       N270   2.069       .  S
N263        N264   1.322       .  A
N263        C267   1.344       .  A
N264        C265   1.344       .  A
C265        C266   1.380       .  A
C265        H268   1.082       .  S
C266        C267   1.382       .  A
C266        C492   1.465       .  S
C267        H269   1.082       .  S
N270        N271   1.322       .  A
N270        C274   1.345       .  A
N271        C272   1.344       .  A
C272        C273   1.381       .  A
C272        H275   1.082       .  S
C273        C274   1.382       .  A
C273        C572   1.467       .  S
C274        H276   1.082       .  S
C277        C282   1.381       .  A
C277        C278   1.402       .  A
C277        O283   1.317       .  A
C278        C279   1.401       .  A
C278        H289   1.082       .  S
C279        C288   1.361       .  A
C279        C280   1.380       .  A
C280        C281   1.404       .  A
C280        O286   1.318       .  A
C281        C282   1.403       .  A
C281        H290   1.082       .  S
C282        C285   1.363       .  A
O283        C284   1.330       .  A
C284        C285   1.391       .  A
C285        H291   1.082       .  S
O286        C287   1.331       .  A
C287        C288   1.390       .  A
C288        H292   1.082       .  S
C293        C298   1.380       .  A
C293        C294   1.403       .  A
C293        O299   1.318       .  A
C294        C295   1.402       .  A
C294        H305   1.082       .  S
C295        C304   1.361       .  A
C295        C296   1.380       .  A
C296        C297   1.404       .  A
C296        O302   1.319       .  A
C297        C298   1.404       .  A
C297        H306   1.082       .  S
C298        C301   1.363       .  A
O299        C300   1.330       .  A
C300        C301   1.392       .  A
C301        H307   1.082       .  S
O302        C303   1.331       .  A
C303        C304   1.390       .  A
C304        H308   1.082       .  S
C309        C314   1.380       .  A
C309        C310   1.404       .  A
C309        O315   1.319       .  A
C310        C311   1.403       .  A
C310        H321   1.082       .  S
C311        C320   1.363       .  A
C311        C312   1.381       .  A
C312        C313   1.401       .  A
C312        O318   1.317       .  A
C313        C314   1.401       .  A
C313        H322   1.082       .  S
C314        C317   1.360       .  A
O315        C316   1.331       .  A
C316        C317   1.390       .  A
C317        H323   1.082       .  S
O318        C319   1.329       .  A
C319        C320   1.391       .  A
C320        H324   1.082       .  S
C325        C330   1.381       .  A
C325        C326   1.403       .  A
C325        O331   1.318       .  A
C326        C327   1.402       .  A
C326        H337   1.082       .  S
C327        C336   1.361       .  A
C327        C328   1.381       .  A
C328        C329   1.403       .  A
C328        O334   1.318       .  A
C329        C330   1.402       .  A
C329        H338   1.082       .  S
C330        C333   1.361       .  A
O331        C332   1.330       .  A
C332        C333   1.390       .  A
C333        H339   1.082       .  S
O334        C335   1.330       .  A
C335        C336   1.391       .  A
C336        H340   1.082       .  S
C341        C346   1.380       .  A
C341        C342   1.403       .  A
C341        O347   1.318       .  A
C342        C343   1.402       .  A
C342        H353   1.082       .  S
C343        C352   1.362       .  A
C343        C344   1.381       .  A
C344        C345   1.403       .  A
C344        O350   1.318       .  A
C345        C346   1.402       .  A
C345        H354   1.082       .  S
C346        C349   1.362       .  A
O347        C348   1.331       .  A
C348        C349   1.392       .  A
C349        H355   1.082       .  S
O350        C351   1.330       .  A
C351        C352   1.391       .  A
C352        H356   1.082       .  S
C357        C362   1.381       .  A
C357        C358   1.402       .  A
C357        O363   1.318       .  A
C358        C359   1.402       .  A
C358        H369   1.082       .  S
C359        C368   1.360       .  A
C359        C360   1.381       .  A
C360        C361   1.402       .  A
C360        O366   1.318       .  A
C361        C362   1.401       .  A
C361        H370   1.082       .  S
C362        C365   1.360       .  A
O363        C364   1.330       .  A
C364        C365   1.391       .  A
C365        H371   1.082       .  S
O366        C367   1.330       .  A
C367        C368   1.390       .  A
C368        H372   1.083       .  S
C373        C378   1.381       .  A
C373        C374   1.403       .  A
C373        O379   1.318       .  A
C374        C375   1.402       .  A
C374        H385   1.082       .  S
C375        C384   1.361       .  A
C375        C376   1.381       .  A
C376        C377   1.401       .  A
C376        O382   1.317       .  A
C377        C378   1.401       .  A
C377        H386   1.082       .  S
C378        C381   1.359       .  A
O379        C380   1.331       .  A
C380        C381   1.390       .  A
C381        H387   1.082       .  S
O382        C383   1.329       .  A
C383        C384   1.391       .  A
C384        H388   1.083       .  S
C389        C394   1.380       .  A
C389        C390   1.403       .  A
C389        O395   1.319       .  A
C390        C391   1.403       .  A
C390        H401   1.082       .  S
C391        C400   1.362       .  A
C391        C392   1.381       .  A
C392        C393   1.403       .  A
C392        O398   1.319       .  A
C393        C394   1.403       .  A
C393        H402   1.082       .  S
C394        C397   1.361       .  A
O395        C396   1.331       .  A
C396        C397   1.392       .  A
C397        H403   1.082       .  S
O398        C399   1.331       .  A
C399        C400   1.391       .  A
C400        H404   1.082       .  S
C405        C410   1.380       .  A
C405        C406   1.404       .  A
C405        O411   1.319       .  A
C406        C407   1.403       .  A
C406        H417   1.082       .  S
C407        C416   1.362       .  A
C407        C408   1.381       .  A
C408        C409   1.402       .  A
C408        O414   1.318       .  A
C409        C410   1.401       .  A
C409        H418   1.082       .  S
C410        C413   1.360       .  A
O411        C412   1.331       .  A
C412        C413   1.391       .  A
C413        H419   1.082       .  S
O414        C415   1.330       .  A
C415        C416   1.391       .  A
C416        H420   1.082       .  S
C421        C426   1.381       .  A
C421        C422   1.402       .  A
C421        O427   1.318       .  A
C422        C423   1.402       .  A
C422        H433   1.082       .  S
C423        C432   1.360       .  A
C423        C424   1.381       .  A
C424        C425   1.403       .  A
C424        O430   1.318       .  A
C425        C426   1.402       .  A
C425        H434   1.082       .  S
C426        C429   1.361       .  A
O427        C428   1.330       .  A
C428        C429   1.391       .  A
C429        H435   1.082       .  S
O430        C431   1.330       .  A
C431        C432   1.391       .  A
C432        H436   1.082       .  S
C437        C442   1.380       .  A
C437        C438   1.404       .  A
C437        O443   1.319       .  A
C438        C439   1.403       .  A
C438        H449   1.082       .  S
C439        C448   1.362       .  A
C439        C440   1.381       .  A
C440        C441   1.402       .  A
C440        O446   1.318       .  A
C441        C442   1.402       .  A
C441        H450   1.082       .  S
C442        C445   1.360       .  A
O443        C444   1.331       .  A
C444        C445   1.391       .  A
C445        H451   1.082       .  S
O446        C447   1.330       .  A
C447        C448   1.391       .  A
C448        H452   1.082       .  S
C453        C458   1.381       .  A
C453        C454   1.403       .  A
C453        O459   1.319       .  A
C454        C455   1.403       .  A
C454        H465   1.082       .  S
C455        C464   1.360       .  A
C455        C456   1.381       .  A
C456        C457   1.401       .  A
C456        O462   1.317       .  A
C457        C458   1.400       .  A
C457        H466   1.082       .  S
C458        C461   1.359       .  A
O459        C460   1.331       .  A
C460        C461   1.389       .  A
C461        H467   1.082       .  S
O462        C463   1.329       .  A
C463        C464   1.391       .  A
C464        H468   1.082       .  S
C469        C474   1.381       .  A
C469        C470   1.402       .  A
C469        O475   1.317       .  A
C470        C471   1.401       .  A
C470        H481   1.082       .  S
C471        C480   1.360       .  A
C471        C472   1.380       .  A
C472        C473   1.403       .  A
C472        O478   1.319       .  A
C473        C474   1.402       .  A
C473        H482   1.082       .  S
C474        C477   1.361       .  A
O475        C476   1.329       .  A
C476        C477   1.391       .  A
C477        H483   1.082       .  S
O478        C479   1.331       .  A
C479        C480   1.390       .  A
C480        H484   1.082       .  S
C485        C490   1.381       .  A
C485        C486   1.401       .  A
C485        O491   1.317       .  A
C486        C487   1.401       .  A
C486        H497   1.082       .  S
C487        C496   1.359       .  A
C487        C488   1.381       .  A
C488        C489   1.402       .  A
C488        O494   1.318       .  A
C489        C490   1.401       .  A
C489        H498   1.082       .  S
C490        C493   1.360       .  A
O491        C492   1.329       .  A
C492        C493   1.390       .  A
C493        H499   1.082       .  S
O494        C495   1.330       .  A
C495        C496   1.390       .  A
C496        H500   1.083       .  S
C501        C506   1.380       .  A
C501        C502   1.404       .  A
C501        O507   1.319       .  A
C502        C503   1.403       .  A
C502        H513   1.082       .  S
C503        C512   1.362       .  A
C503        C504   1.381       .  A
C504        C505   1.402       .  A
C504        O510   1.317       .  A
C505        C506   1.401       .  A
C505        H514   1.082       .  S
C506        C509   1.360       .  A
O507        C508   1.331       .  A
C508        C509   1.391       .  A
C509        H515   1.082       .  S
O510        C511   1.329       .  A
C511        C512   1.391       .  A
C512        H516   1.082       .  S
C517        C522   1.381       .  A
C517        C518   1.403       .  A
C517        O523   1.319       .  A
C518        C519   1.402       .  A
C518        H529   1.082       .  S
C519        C528   1.361       .  A
C519        C520   1.381       .  A
C520        C521   1.402       .  A
C520        O526   1.318       .  A
C521        C522   1.402       .  A
C521        H530   1.082       .  S
C522        C525   1.360       .  A
O523        C524   1.330       .  A
C524        C525   1.391       .  A
C525        H531   1.082       .  S
O526        C527   1.330       .  A
C527        C528   1.390       .  A
C528        H532   1.082       .  S
C533        C538   1.381       .  A
C533        C534   1.403       .  A
C533        O539   1.318       .  A
C534        C535   1.402       .  A
C534        H545   1.082       .  S
C535        C544   1.361       .  A
C535        C536   1.380       .  A
C536        C537   1.404       .  A
C536        O542   1.319       .  A
C537        C538   1.403       .  A
C537        H546   1.082       .  S
C538        C541   1.362       .  A
O539        C540   1.331       .  A
C540        C541   1.391       .  A
C541        H547   1.082       .  S
O542        C543   1.331       .  A
C543        C544   1.391       .  A
C544        H548   1.082       .  S
C549        C554   1.381       .  A
C549        C550   1.402       .  A
C549        O555   1.318       .  A
C550        C551   1.402       .  A
C550        H561   1.082       .  S
C551        C560   1.360       .  A
C551        C552   1.381       .  A
C552        C553   1.402       .  A
C552        O558   1.318       .  A
C553        C554   1.401       .  A
C553        H562   1.082       .  S
C554        C557   1.360       .  A
O555        C556   1.330       .  A
C556        C557   1.390       .  A
C557        H563   1.082       .  S
O558        C559   1.330       .  A
C559        C560   1.391       .  A
C560        H564   1.082       .  S
C565        C570   1.381       .  A
C565        C566   1.403       .  A
C565        O571   1.318       .  A
C566        C567   1.402       .  A
C566        H577   1.082       .  S
C567        C576   1.361       .  A
C567        C568   1.381       .  A
C568        C569   1.403       .  A
C568        O574   1.318       .  A
C569        C570   1.402       .  A
C569        H578   1.082       .  S
C570        C573   1.361       .  A
O571        C572   1.330       .  A
C572        C573   1.390       .  A
C573        H579   1.082       .  S
O574        C575   1.330       .  A
C575        C576   1.391       .  A
C576        H580   1.082       .  S
C581        C586   1.380       .  A
C581        C582   1.404       .  A
C581        O587   1.319       .  A
C582        C583   1.403       .  A
C582        H593   1.082       .  S
C583        C592   1.362       .  A
C583        C584   1.380       .  A
C584        C585   1.404       .  A
C584        O590   1.319       .  A
C585        C586   1.403       .  A
C585        H594   1.082       .  S
C586        C589   1.362       .  A
O587        C588   1.331       .  A
C588        C589   1.391       .  A
C589        H595   1.082       .  S
O590        C591   1.331       .  A
C591        C592   1.392       .  A
C592        H596   1.082       .  S
C597        C602   1.380       .  A
C597        C598   1.404       .  A
C597        O603   1.319       .  A
C598        C599   1.403       .  A
C598        H609   1.082       .  S
C599        C608   1.362       .  A
C599        C600   1.381       .  A
C600        C601   1.402       .  A
C600        O606   1.318       .  A
C601        C602   1.401       .  A
C601        H610   1.082       .  S
C602        C605   1.360       .  A
O603        C604   1.331       .  A
C604        C605   1.391       .  A
C605        H611   1.082       .  S
O606        C607   1.330       .  A
C607        C608   1.391       .  A
C608        H612   1.082       .  S
C613        C618   1.381       .  A
C613        C614   1.402       .  A
C613        O619   1.318       .  A
C614        C615   1.402       .  A
C614        H625   1.082       .  S
C615        C624   1.361       .  A
C615        C616   1.381       .  A
C616        C617   1.402       .  A
C616        O622   1.318       .  A
C617        C618   1.401       .  A
C617        H626   1.082       .  S
C618        C621   1.359       .  A
O619        C620   1.330       .  A
C620        C621   1.391       .  A
C621        H627   1.082       .  S
O622        C623   1.330       .  A
C623        C624   1.391       .  A
C624        H628   1.082       .  S
C629        C634   1.380       .  A
C629        C630   1.404       .  A
C629        O635   1.319       .  A
C630        C631   1.403       .  A
C630        H641   1.082       .  S
C631        C640   1.362       .  A
C631        C632   1.381       .  A
C632        C633   1.401       .  A
C632        O638   1.317       .  A
C633        C634   1.400       .  A
C633        H642   1.082       .  S
C634        C637   1.359       .  A
O635        C636   1.331       .  A
C636        C637   1.390       .  A
C637        H643   1.082       .  S
O638        C639   1.329       .  A
C639        C640   1.392       .  A
C640        H644   1.082       .  S
C645        C650   1.381       .  A
C645        C646   1.403       .  A
C645        O651   1.317       .  A
C646        C647   1.402       .  A
C646        H657   1.082       .  S
C647        C656   1.361       .  A
C647        C648   1.381       .  A
C648        C649   1.400       .  A
C648        O654   1.316       .  A
C649        C650   1.399       .  A
C649        H658   1.082       .  S
C650        C653   1.359       .  A
O651        C652   1.330       .  A
C652        C653   1.390       .  A
C653        H659   1.082       .  S
O654        C655   1.329       .  A
C655        C656   1.391       .  A
C656        H660   1.082       .  S
