geometry optimzed in LAMMPS
_audit_creation_date              2020-12-01 
_audit_creation_method            'lammps2cif' 
_symmetry_space_group_name_H-M    'P1' 
_symmetry_Int_Tables_number       1 
_symmetry_cell_setting            triclinic 
loop_ 
_symmetry_equiv_pos_as_xyz 
  x,y,z 
_cell_length_a                    28.42461147 
_cell_length_b                    30.054337546265575 
_cell_length_c                    25.97639099154691 
_cell_angle_alpha                 90.64685518628795 
_cell_angle_beta                  90.1492563173278 
_cell_angle_gamma                 85.9855294818054 
loop_ 
_atom_site_label 
_atom_site_type_symbol 
_atom_site_fract_x 
_atom_site_fract_y 
_atom_site_fract_z 
_atom_site_charge 
O1          O  0.46223938  0.20414483  0.55001392    -0.75200
O2          O  0.46339601  0.29615984  0.44813399    -0.75300
O3          O  0.46411840  0.20627234  0.44589501    -0.75300
O4          O  0.46016706  0.29438646  0.55223407    -0.75400
O5          O  0.03878582  0.29019569  0.55554216    -0.75300
O6          O  0.04250396  0.20192956  0.44717646    -0.75300
O7          O  0.04202208  0.29211295  0.45163785    -0.75300
O8          O  0.04082090  0.20012754  0.55135773    -0.75300
Ni9        Ni  0.45967915  0.25038299  0.49902310     1.25400
Ni10       Ni  0.04383854  0.24591735  0.50152707     1.25400
C11         C  0.00169826  0.18646660  0.56673385     0.86900
C12         C  0.00313266  0.30957676  0.43378806     0.86900
C13         C  0.50363401  0.18936674  0.42873641     0.86900
C14         C  0.49859073  0.30741611  0.57082043     0.87100
C15         C  0.50276724  0.45644068  0.28864507     0.85700
C16         C  0.46044815  0.46312238  0.25157783    -0.54600
C17         C  0.45989036  0.00111553  0.22244452     0.08600
C18         C  0.50158100  0.02977206  0.23485716     0.19600
C19         C  0.04646528  0.46003002  0.25488437    -0.55300
C20         C  0.04553524  0.99782231  0.22600845     0.08700
C21         C  0.49886519  0.99970688  0.32098381    -0.54800
C22         C  0.99908295  0.03758810  0.29315567     0.09300
H23         H  0.43240351  0.44070677  0.24960721     0.13800
H24         H  0.50153615  0.06160909  0.21384880    -0.00500
H25         H  0.07493606  0.43402962  0.25260553     0.14100
H26         H  0.49588702  0.00072008  0.36267189     0.13900
C27         C  0.00012404  0.45627847  0.71525282     0.85700
C28         C  0.04250364  0.46154184  0.75140034    -0.54600
C29         C  0.04095410  0.00128782  0.77762987     0.08600
C30         C  0.99805705  0.03325498  0.76407094     0.19600
C31         C  0.45653949  0.46603398  0.74898950    -0.55300
C32         C  0.45497707  0.00611741  0.77422515     0.08700
C33         C  0.00155752  0.99695616  0.68009850    -0.54800
C34         C  0.49997792  0.03720843  0.70495403     0.09300
H35         H  0.07237695  0.43756487  0.75534868     0.13800
H36         H  0.99734217  0.06560942  0.78521535    -0.00500
H37         H  0.42955335  0.44249899  0.75345429     0.14100
H38         H  0.00388472  0.99414848  0.63841889     0.13900
O39         O  0.29271957  0.06311364  0.94840503    -0.75200
O40         O  0.19752060  0.05940561  0.05330498    -0.75300
O41         O  0.29280107  0.06310193  0.05333453    -0.75300
O42         O  0.19683772  0.05950271  0.94872386    -0.75400
O43         O  0.20569488  0.48522666  0.94839359    -0.75300
O44         O  0.30093783  0.48868272  0.05219903    -0.75300
O45         O  0.20694486  0.48523586  0.05190244    -0.75300
O46         O  0.30086427  0.48870221  0.94745699    -0.75300
Ni47       Ni  0.24474377  0.06402767  0.00085681     1.25400
Ni48       Ni  0.25403971  0.48442285  0.99978841     1.25400
C49         C  0.31240297  0.02635763  0.93086118     0.86900
C50         C  0.18680353  0.02145644  0.07011968     0.86900
C51         C  0.31166874  0.02628520  0.07074332     0.86900
C52         C  0.18449287  0.02152869  0.93258303     0.87100
C53         C  0.07588140  0.01002948  0.81835462    -0.06900
C54         C  0.07783843  0.48226539  0.86139587    -0.18100
C55         C  0.11162978  0.48665177  0.90017765     0.10300
C56         C  0.14506707  0.01905889  0.89542017    -0.06900
C57         C  0.14157191  0.04839745  0.85363449    -0.18100
C58         C  0.10764180  0.04393241  0.81488924     0.10300
S59         S  0.11025661  0.45200682  0.95659091    -0.33100
S60         S  0.10828463  0.08068953  0.76072618    -0.33100
H61         H  0.10046330  0.04727112  0.72403719     0.28300
H62         H  0.06975044  0.43011488  0.94317956     0.28300
H63         H  0.05268482  0.45696384  0.86440498     0.18900
H64         H  0.16674154  0.07363460  0.84993431     0.18900
C65         C  0.41715855  0.01910661  0.81169189    -0.06900
C66         C  0.43037610  0.52732996  0.86269225    -0.18100
C67         C  0.39690259  0.53027282  0.90219664     0.10300
C68         C  0.34873653  0.02683195  0.89049123    -0.06900
C69         C  0.33516109  0.02100694  0.83909641    -0.18100
C70         C  0.36871572  0.01719665  0.79957077     0.10300
S71         S  0.41841965  0.53578835  0.96686100    -0.33100
S72         S  0.34729255  0.00942073  0.73480688    -0.33100
H73         H  0.38594787  0.02576927  0.70933473     0.28300
H74         H  0.38659750  0.50787723  0.98904682     0.28300
H75         H  0.46741847  0.52829689  0.87239024     0.18900
H76         H  0.29821932  0.01853804  0.82982090     0.18900
C77         C  0.15027907  0.01798309  0.11038652    -0.06900
C78         C  0.12601365  0.47883882  0.11049696    -0.18100
C79         C  0.09110223  0.47218322  0.14657179     0.10300
C80         C  0.08071762  0.00460838  0.18537612    -0.06900
C81         C  0.10382365  0.04434653  0.18491603    -0.18100
C82         C  0.13868814  0.05133222  0.14824084     0.10300
S83         S  0.05921634  0.42274322  0.13868098    -0.33100
S84         S  0.16753093  0.10273473  0.15337296    -0.33100
H85         H  0.21318461  0.08329415  0.14449696     0.28300
H86         H  0.01504265  0.44378905  0.15157297     0.28300
H87         H  0.13332189  0.45339553  0.08114567     0.18900
H88         H  0.09546637  0.06967802  0.21409014     0.18900
C89         C  0.42118806  0.01314140  0.18464706    -0.06900
C90         C  0.37549209  0.00069402  0.19591371    -0.18100
C91         C  0.33875423  0.00582487  0.16024310     0.10300
C92         C  0.34640477  0.02653769  0.11290702    -0.06900
C93         C  0.39032614  0.54287225  0.10327287    -0.18100
C94         C  0.42847548  0.53463209  0.13713807     0.10300
S95         S  0.28326189  0.98439077  0.17738226    -0.33100
S96         S  0.48634570  0.54661758  0.11483982    -0.33100
H97         H  0.47176048  0.57239873  0.07207828     0.28500
H98         H  0.25519540  0.01378422  0.14692608     0.28300
H99         H  0.36818595  0.98588390  0.23257121     0.18900
H100        H  0.39551325  0.55942297  0.06732190     0.18900
C101        C  0.50452258  0.34599314  0.39640437    -0.06900
C102        C  0.48220820  0.34162955  0.34862338    -0.18100
C103        C  0.48491770  0.37403286  0.31046087     0.10300
C104        C  0.50621975  0.41441548  0.32213997    -0.06900
C105        C  0.03248908  0.41603851  0.36818536    -0.18100
C106        C  0.03134295  0.38306621  0.40543679     0.10300
S107        S  0.46791887  0.35757297  0.24648947    -0.33100
S108        S  0.06422562  0.39145854  0.46393741    -0.33100
H109        H  0.03478356  0.36958825  0.49692465     0.28300
H110        H  0.50232927  0.38090511  0.22170788     0.28300
H111        H  0.46499709  0.31137053  0.33983744     0.18900
H112        H  0.05331618  0.44414535  0.37620068     0.18900
C113        C  0.00294761  0.15383138  0.38844379    -0.06900
C114        C  0.46024589  0.13361080  0.38042046    -0.18100
C115        C  0.45707506  0.09808265  0.34594346     0.10300
C116        C  0.99741831  0.08158708  0.31875371    -0.06900
C117        C  0.03937906  0.10298940  0.32396691    -0.18100
C118        C  0.04268310  0.13883078  0.35844323     0.10300
S119        S  0.40102077  0.07388170  0.33972803    -0.33100
S120        S  0.09852634  0.16333928  0.36240579    -0.33100
H121        H  0.10783436  0.14665761  0.41210095     0.28300
H122        H  0.40687275  0.06179304  0.28763951     0.28300
H123        H  0.42900274  0.14466536  0.40210823     0.18900
H124        H  0.07052849  0.09009761  0.30323852     0.18900
C125        C  0.99676075  0.41305281  0.68393778    -0.06900
C126        C  0.46454302  0.41496055  0.64255225    -0.18100
C127        C  0.46452735  0.38142919  0.60518682     0.10300
C128        C  0.99632686  0.34343766  0.60972795    -0.06900
C129        C  0.02474555  0.33879320  0.65380406    -0.18100
C130        C  0.02345746  0.37198032  0.69225211     0.10300
S131        S  0.42430261  0.39079890  0.55183887    -0.33100
S132        S  0.04898683  0.35554231  0.75328222    -0.33100
H133        H  0.01487724  0.38063556  0.78270431     0.28300
H134        H  0.45482680  0.37227317  0.51377280     0.28300
H135        H  0.44050803  0.44424612  0.63769750     0.18900
H136        H  0.04618574  0.30797824  0.65960155     0.18900
C137        C  0.50270834  0.07894346  0.67520632    -0.06900
C138        C  0.03739854  0.07928152  0.63685852    -0.18100
C139        C  0.03724374  0.11326422  0.60077671     0.10300
C140        C  0.50259148  0.14932632  0.60373530    -0.06900
C141        C  0.46868853  0.14993745  0.64310335    -0.18100
C142        C  0.46832120  0.11507574  0.67885728     0.10300
S143        S  0.07994200  0.10638976  0.54949093    -0.33100
S144        S  0.42232150  0.11589912  0.72667723    -0.33100
H145        H  0.39928299  0.15697469  0.71282928     0.28300
H146        H  0.04793231  0.12016742  0.51042804     0.28300
H147        H  0.06367438  0.05148282  0.63337318     0.18900
H148        H  0.44228572  0.17763997  0.64550395     0.18900
O149        O  0.46222742  0.70414604  0.55000956    -0.75200
O150        O  0.46338073  0.79616147  0.44813086    -0.75300
O151        O  0.46410308  0.70627343  0.44589155    -0.75300
O152        O  0.46015622  0.79438814  0.55223043    -0.75400
O153        O  0.03877336  0.79019595  0.55553869    -0.75300
O154        O  0.04249168  0.70193047  0.44717360    -0.75300
O155        O  0.04200869  0.79211390  0.45163492    -0.75300
O156        O  0.04080889  0.70012801  0.55135393    -0.75300
Ni157      Ni  0.45966575  0.75038443  0.49901960     1.25400
Ni158      Ni  0.04382598  0.74591807  0.50152374     1.25400
C159        C  0.00168638  0.68646617  0.56672918     0.86900
C160        C  0.00311906  0.80957809  0.43378611     0.86900
C161        C  0.50361848  0.68936734  0.42873287     0.86900
C162        C  0.49858104  0.80741730  0.57081458     0.87100
C163        C  0.50275729  0.95644585  0.28864531     0.85700
C164        C  0.46043929  0.96312991  0.25157765    -0.54600
C165        C  0.45989558  0.50110930  0.22244646     0.08600
C166        C  0.50158319  0.52976923  0.23486026     0.19600
C167        C  0.04646076  0.96002911  0.25488559    -0.55300
C168        C  0.04553643  0.49782418  0.22600872     0.08700
C169        C  0.49887103  0.49970044  0.32098543    -0.54800
C170        C  0.99908175  0.53758519  0.29315726     0.09300
H171        H  0.43239275  0.94071641  0.24960804     0.13800
H172        H  0.50153485  0.56160705  0.21385283    -0.00500
H173        H  0.07492984  0.93402694  0.25260850     0.14100
H174        H  0.49589229  0.50071177  0.36267350     0.13900
C175        C  0.00011699  0.95627656  0.71524961     0.85700
C176        C  0.04249671  0.96153466  0.75139816    -0.54600
C177        C  0.04095777  0.50129619  0.77763023     0.08600
C178        C  0.99805767  0.53325929  0.76407014     0.19600
C179        C  0.45653906  0.96603147  0.74898642    -0.55300
C180        C  0.45497606  0.50612116  0.77422575     0.08700
C181        C  0.00156007  0.49695705  0.68009949    -0.54800
C182        C  0.49997461  0.53721058  0.70495187     0.09300
H183        H  0.07236806  0.93755512  0.75534513     0.13800
H184        H  0.99733951  0.56561513  0.78521207    -0.00500
H185        H  0.42955177  0.94249735  0.75344915     0.14100
H186        H  0.00388655  0.49414812  0.63841990     0.13900
O187        O  0.29272423  0.56312080  0.94841156    -0.75200
O188        O  0.19752368  0.55941373  0.05330994    -0.75300
O189        O  0.29280487  0.56310537  0.05334133    -0.75300
O190        O  0.19684126  0.55951380  0.94872850    -0.75400
O191        O  0.20569413  0.98521559  0.94839149    -0.75300
O192        O  0.30093741  0.98867934  0.05219571    -0.75300
O193        O  0.20694473  0.98522785  0.05190036    -0.75300
O194        O  0.30086314  0.98869515  0.94745370    -0.75300
Ni195      Ni  0.24474773  0.56403518  0.00086265     1.25400
Ni196      Ni  0.25403923  0.98441541  0.99978581     1.25400
C197        C  0.31240590  0.52636463  0.93086610     0.86900
C198        C  0.18680481  0.52146455  0.07012280     0.86900
C199        C  0.31167085  0.52628729  0.07074864     0.86900
C200        C  0.18449467  0.52154066  0.93258632     0.87100
C201        C  0.07588298  0.51004088  0.81835671    -0.06900
C202        C  0.07783415  0.98225600  0.86139558    -0.18100
C203        C  0.11162690  0.98664092  0.90017630     0.10300
C204        C  0.14506775  0.51907214  0.89542381    -0.06900
C205        C  0.14156900  0.54841361  0.85364078    -0.18100
C206        C  0.10763890  0.54394812  0.81489512     0.10300
S207        S  0.11025210  0.95199896  0.95659198    -0.33100
S208        S  0.10827608  0.58071044  0.76073638    -0.33100
H209        H  0.10045820  0.54729409  0.72404375     0.28300
H210        H  0.06976956  0.93007865  0.94316068     0.28300
H211        H  0.05267680  0.95695805  0.86440725     0.18900
H212        H  0.16673588  0.57365345  0.84994276     0.18900
C213        C  0.41715802  0.51911067  0.81169306    -0.06900
C214        C  0.43037529  0.02732265  0.86269214    -0.18100
C215        C  0.39690052  0.03026402  0.90219520     0.10300
C216        C  0.34873846  0.52683857  0.89049500    -0.06900
C217        C  0.33516164  0.52101051  0.83910118    -0.18100
C218        C  0.36871483  0.51719888  0.79957420     0.10300
S219        S  0.41841567  0.03577491  0.96686094    -0.33100
S220        S  0.34728834  0.50941886  0.73481222    -0.33100
H221        H  0.38594652  0.52575454  0.70933317     0.28300
H222        H  0.38659330  0.00786186  0.98904289     0.28300
H223        H  0.46741747  0.02828795  0.87239177     0.18900
H224        H  0.29821969  0.51854012  0.82982755     0.18900
C225        C  0.15027906  0.51799098  0.11038806    -0.06900
C226        C  0.12601517  0.97883007  0.11049911    -0.18100
C227        C  0.09110413  0.97217561  0.14657497     0.10300
C228        C  0.08071735  0.50461339  0.18537606    -0.06900
C229        C  0.10382381  0.54435139  0.18491895    -0.18100
C230        C  0.13868823  0.55133867  0.14824415     0.10300
S231        S  0.05922083  0.92273350  0.13868930    -0.33100
S232        S  0.16753056  0.60274129  0.15337855    -0.33100
H233        H  0.21318440  0.58330107  0.14450249     0.28300
H234        H  0.01504601  0.94377948  0.15157698     0.28300
H235        H  0.13332421  0.95338519  0.08114982     0.18900
H236        H  0.09546697  0.56968133  0.21409486     0.18900
C237        C  0.42119268  0.51313425  0.18464944    -0.06900
C238        C  0.37549673  0.50068678  0.19591613    -0.18100
C239        C  0.33875765  0.50582167  0.16024700     0.10300
C240        C  0.34640780  0.52653654  0.11291197    -0.06900
C241        C  0.39032228  0.04287555  0.10326832    -0.18100
C242        C  0.42847122  0.03463801  0.13713490     0.10300
S243        S  0.28326360  0.48439133  0.17738661    -0.33100
S244        S  0.48634133  0.04662568  0.11483807    -0.33100
H245        H  0.47175693  0.07239722  0.07206871     0.28500
H246        H  0.25519860  0.51379058  0.14693554     0.28300
H247        H  0.36819151  0.48587445  0.23257266     0.18900
H248        H  0.39550916  0.05942555  0.06731681     0.18900
C249        C  0.50450555  0.84599712  0.39640310    -0.06900
C250        C  0.48218901  0.84163625  0.34862300    -0.18100
C251        C  0.48490001  0.87403996  0.31046129     0.10300
C252        C  0.50620474  0.91442121  0.32214103    -0.06900
C253        C  0.03247852  0.91604027  0.36818672    -0.18100
C254        C  0.03133102  0.88306759  0.40543741     0.10300
S255        S  0.46790053  0.85758114  0.24648970    -0.33100
S256        S  0.06421603  0.89145745  0.46393706    -0.33100
H257        H  0.03477742  0.86958402  0.49692482     0.28300
H258        H  0.50231447  0.88090934  0.22170887     0.28300
H259        H  0.46497620  0.81137828  0.33983644     0.18900
H260        H  0.05330749  0.94414576  0.37620230     0.18900
C261        C  0.00293682  0.65383039  0.38844330    -0.06900
C262        C  0.46023875  0.63359022  0.38044336    -0.18100
C263        C  0.45707089  0.59806021  0.34596838     0.10300
C264        C  0.99741261  0.58158384  0.31875611    -0.06900
C265        C  0.03936959  0.60299306  0.32396296    -0.18100
C266        C  0.04267105  0.63883571  0.35843778     0.10300
S267        S  0.40102645  0.57383684  0.33977835    -0.33100
S268        S  0.09850921  0.66335434  0.36239150    -0.33100
H269        H  0.10782848  0.64667086  0.41208372     0.28300
H270        H  0.40686511  0.56174652  0.28768859     0.28300
H271        H  0.42900078  0.64463179  0.40214701     0.18900
H272        H  0.07051853  0.59010605  0.30323051     0.18900
C273        C  0.99675105  0.91305232  0.68393329    -0.06900
C274        C  0.46454267  0.91496371  0.64254542    -0.18100
C275        C  0.46452505  0.88143341  0.60517907     0.10300
C276        C  0.99631515  0.84343778  0.60972383    -0.06900
C277        C  0.02472871  0.83878982  0.65380345    -0.18100
C278        C  0.02344110  0.87197692  0.69225129     0.10300
S279        S  0.42430308  0.89080822  0.55182947    -0.33100
S280        S  0.04896150  0.85553641  0.75328492    -0.33100
H281        H  0.01485285  0.88063500  0.78270267     0.28300
H282        H  0.45482124  0.87227117  0.51376465     0.28300
H283        H  0.44051021  0.94425106  0.63769069     0.18900
H284        H  0.04616403  0.80797243  0.65960357     0.18900
C285        C  0.50270097  0.57894478  0.67520222    -0.06900
C286        C  0.03739608  0.57928618  0.63685967    -0.18100
C287        C  0.03723703  0.61326648  0.60077445     0.10300
C288        C  0.50257913  0.64932443  0.60372636    -0.06900
C289        C  0.46866840  0.64992921  0.64308578    -0.18100
C290        C  0.46829869  0.61506546  0.67883643     0.10300
S291        S  0.07993693  0.60639369  0.54949010    -0.33100
S292        S  0.42228908  0.61587851  0.72664435    -0.33100
H293        H  0.39895230  0.65672173  0.71244346     0.28300
H294        H  0.04792722  0.62016805  0.51042582     0.28300
H295        H  0.06367708  0.55149132  0.63337918     0.18900
H296        H  0.44226726  0.67763299  0.64548863     0.18900
O297        O  0.96223996  0.20413386  0.55001470    -0.75200
O298        O  0.96339673  0.29614779  0.44813388    -0.75300
O299        O  0.96411671  0.20626052  0.44589671    -0.75300
O300        O  0.96016927  0.29437532  0.55223376    -0.75400
O301        O  0.53878352  0.29020804  0.55554363    -0.75300
O302        O  0.54250528  0.20194363  0.44717604    -0.75300
O303        O  0.54202124  0.29212696  0.45163948    -0.75300
O304        O  0.54082023  0.20014023  0.55135787    -0.75300
Ni305      Ni  0.95967965  0.25037161  0.49902371     1.25400
Ni306      Ni  0.54383783  0.24593059  0.50152783     1.25400
C307        C  0.50169783  0.18647874  0.56673408     0.86900
C308        C  0.50313169  0.30958997  0.43378910     0.86900
C309        C  0.00363170  0.18935345  0.42873847     0.86900
C310        C  0.99859339  0.30740459  0.57081913     0.87100
C311        C  0.00277083  0.45642701  0.28864429     0.85700
C312        C  0.96045187  0.46310900  0.25157702    -0.54600
C313        C  0.95989648  0.00110176  0.22244700     0.08600
C314        C  0.00158518  0.02975978  0.23486266     0.19600
C315        C  0.54646166  0.46004047  0.25488461    -0.55300
C316        C  0.54552923  0.99783186  0.22600518     0.08700
C317        C  0.99887020  0.99968891  0.32098658    -0.54800
C318        C  0.49908011  0.03760415  0.29314957     0.09300
H319        H  0.93240815  0.44069253  0.24960455     0.13800
H320        H  0.00153836  0.06159829  0.21385700    -0.00500
H321        H  0.57493161  0.43403913  0.25260730     0.14100
H322        H  0.99589109  0.00069926  0.36267465     0.13900
C323        C  0.50012511  0.45629101  0.71525319     0.85700
C324        C  0.54250461  0.46155490  0.75140074    -0.54600
C325        C  0.54095883  0.00130181  0.77763124     0.08600
C326        C  0.49806002  0.03326679  0.76407268     0.19600
C327        C  0.95653836  0.46602208  0.74898896    -0.55300
C328        C  0.95497203  0.00610838  0.77422333     0.08700
C329        C  0.50156235  0.99696852  0.68009987    -0.54800
C330        C  0.99997539  0.03719607  0.70495243     0.09300
H331        H  0.57237801  0.43757812  0.75534952     0.13800
H332        H  0.49734338  0.06562103  0.78521764    -0.00500
H333        H  0.92955167  0.44248763  0.75345352     0.14100
H334        H  0.50388943  0.99416100  0.63842022     0.13900
O335        O  0.79272406  0.06310889  0.94841080    -0.75200
O336        O  0.69752774  0.05940274  0.05331292    -0.75300
O337        O  0.79280886  0.06309144  0.05334000    -0.75300
O338        O  0.69684191  0.05950586  0.94873244    -0.75400
O339        O  0.70569254  0.48522734  0.94839317    -0.75300
O340        O  0.80093885  0.48867242  0.05219659    -0.75300
O341        O  0.70694518  0.48523169  0.05190193    -0.75300
O342        O  0.80086249  0.48869645  0.94745409    -0.75300
Ni343      Ni  0.74474998  0.06402387  0.00086404     1.25400
Ni344      Ni  0.75403890  0.48441787  0.99978667     1.25400
C345        C  0.81240349  0.02635246  0.93086363     0.86900
C346        C  0.68680714  0.02145385  0.07012496     0.86900
C347        C  0.81167383  0.02627268  0.07074614     0.86900
C348        C  0.68449330  0.02153392  0.93258937     0.87100
C349        C  0.57588322  0.01004374  0.81835875    -0.06900
C350        C  0.57783285  0.48227971  0.86139966    -0.18100
C351        C  0.61162445  0.48666371  0.90018170     0.10300
C352        C  0.64506659  0.01906920  0.89542716    -0.06900
C353        C  0.64157474  0.04840817  0.85364176    -0.18100
C354        C  0.60764546  0.04394528  0.81489514     0.10300
S355        S  0.61024611  0.45202195  0.95659716    -0.33100
S356        S  0.60829113  0.08070371  0.76073339    -0.33100
H357        H  0.60046530  0.04728807  0.72404251     0.28300
H358        H  0.56974252  0.43012764  0.94318178     0.28300
H359        H  0.55267577  0.45698135  0.86440960     0.18900
H360        H  0.66674649  0.07364353  0.84994265     0.18900
C361        C  0.91715496  0.01909969  0.81169083    -0.06900
C362        C  0.93037530  0.52732406  0.86268962    -0.18100
C363        C  0.89690187  0.53026918  0.90219391     0.10300
C364        C  0.84873560  0.02682629  0.89049240    -0.06900
C365        C  0.83515814  0.02100434  0.83909775    -0.18100
C366        C  0.86871145  0.01719355  0.79957084     0.10300
S367        S  0.91841822  0.53579105  0.96685767    -0.33100
S368        S  0.84728547  0.00942202  0.73480720    -0.33100
H369        H  0.88594461  0.02576120  0.70933311     0.28300
H370        H  0.88660058  0.50787602  0.98904474     0.28300
H371        H  0.96741758  0.52829261  0.87238730     0.18900
H372        H  0.79821574  0.01853813  0.82982336     0.18900
C373        C  0.65028178  0.01798222  0.11039081    -0.06900
C374        C  0.62601311  0.47883973  0.11049785    -0.18100
C375        C  0.59109970  0.47218751  0.14657145     0.10300
C376        C  0.58071377  0.00461468  0.18537467    -0.06900
C377        C  0.60382550  0.04434952  0.18491783    -0.18100
C378        C  0.63869379  0.05133132  0.14824591     0.10300
S379        S  0.55920999  0.42274984  0.13868094    -0.33100
S380        S  0.66754654  0.10272794  0.15338413    -0.33100
H381        H  0.71319742  0.08327963  0.14450992     0.28300
H382        H  0.51503763  0.44379822  0.15157329     0.28300
H383        H  0.63331950  0.45339602  0.08114663     0.18900
H384        H  0.59547023  0.06968090  0.21409278     0.18900
C385        C  0.92119398  0.01312770  0.18464987    -0.06900
C386        C  0.87549882  0.00067736  0.19591515    -0.18100
C387        C  0.83876117  0.00580709  0.16024416     0.10300
C388        C  0.84641110  0.02652139  0.11290888    -0.06900
C389        C  0.89032913  0.54286031  0.10327433    -0.18100
C390        C  0.92847786  0.53462195  0.13714063     0.10300
S391        S  0.78326985  0.98437042  0.17738245    -0.33100
S392        S  0.98634724  0.54661352  0.11484548    -0.33100
H393        H  0.97176159  0.57239146  0.07208158     0.28500
H394        H  0.75520179  0.01376323  0.14692700     0.28300
H395        H  0.86819322  0.98586586  0.23257203     0.18900
H396        H  0.89551595  0.55941267  0.06732435     0.18900
C397        C  0.00452419  0.34597963  0.39640307    -0.06900
C398        C  0.98220945  0.34161626  0.34862218    -0.18100
C399        C  0.98492026  0.37401904  0.31045919     0.10300
C400        C  0.00622432  0.41440078  0.32213757    -0.06900
C401        C  0.53248403  0.41605378  0.36818807    -0.18100
C402        C  0.53133964  0.38308068  0.40543877     0.10300
S403        S  0.96792152  0.35755894  0.24648782    -0.33100
S404        S  0.56422235  0.39147271  0.46393935    -0.33100
H405        H  0.53477796  0.36960456  0.49692627     0.28300
H406        H  0.00233131  0.38089180  0.22170597     0.28300
H407        H  0.96499716  0.31135780  0.33983670     0.18900
H408        H  0.55331019  0.44416116  0.37620383     0.18900
C409        C  0.50295174  0.15384664  0.38843807    -0.06900
C410        C  0.96024845  0.13357866  0.38044980    -0.18100
C411        C  0.95707753  0.09804979  0.34597405     0.10300
C412        C  0.49742168  0.08160450  0.31874403    -0.06900
C413        C  0.53939042  0.10299045  0.32397919    -0.18100
C414        C  0.54269527  0.13883007  0.35845789     0.10300
S415        S  0.90103098  0.07383003  0.33978474    -0.33100
S416        S  0.59855161  0.16331167  0.36245301    -0.33100
H417        H  0.60782407  0.14663234  0.41215603     0.28300
H418        H  0.90686871  0.06173720  0.28769557     0.28300
H419        H  0.92901143  0.14462125  0.40215450     0.18900
H420        H  0.57054438  0.09008613  0.30326712     0.18900
C421        C  0.49676163  0.41306522  0.68393823    -0.06900
C422        C  0.96454380  0.41494858  0.64255032    -0.18100
C423        C  0.96453058  0.38141818  0.60518365     0.10300
C424        C  0.49632385  0.34344875  0.60973006    -0.06900
C425        C  0.52474446  0.33880494  0.65380483    -0.18100
C426        C  0.52345819  0.37199260  0.69225225     0.10300
S427        S  0.92430933  0.39078940  0.55183279    -0.33100
S428        S  0.54898981  0.35555515  0.75328147    -0.33100
H429        H  0.51488060  0.38064786  0.78270462     0.28300
H430        H  0.95483388  0.37226085  0.51376880     0.28300
H431        H  0.94050878  0.44423407  0.63769509     0.18900
H432        H  0.54618503  0.30799012  0.65960177     0.18900
C433        C  0.00270673  0.07893094  0.67520497    -0.06900
C434        C  0.53739930  0.07929410  0.63685899    -0.18100
C435        C  0.53724469  0.11327756  0.60077823     0.10300
C436        C  0.00259082  0.14931322  0.60373347    -0.06900
C437        C  0.96868596  0.14992342  0.64309922    -0.18100
C438        C  0.96831556  0.11506020  0.67885050     0.10300
S439        S  0.57994336  0.10640398  0.54949276    -0.33100
S440        S  0.92231362  0.11588230  0.72666791    -0.33100
H441        H  0.89910895  0.15682878  0.71262200     0.28300
H442        H  0.54793331  0.12017979  0.51042944     0.28300
H443        H  0.56367477  0.05149520  0.63337252     0.18900
H444        H  0.94228726  0.17762916  0.64550365     0.18900
O445        O  0.96222796  0.70413371  0.55001084    -0.75200
O446        O  0.96338331  0.79614839  0.44813136    -0.75300
O447        O  0.96410431  0.70626066  0.44589356    -0.75300
O448        O  0.96015666  0.79437551  0.55223080    -0.75400
O449        O  0.53877294  0.79020848  0.55553648    -0.75300
O450        O  0.54249031  0.70194445  0.44717045    -0.75300
O451        O  0.54200613  0.79212796  0.45163301    -0.75300
O452        O  0.54080830  0.70014059  0.55135122    -0.75300
Ni453      Ni  0.95966698  0.75037181  0.49902061     1.25400
Ni454      Ni  0.54382467  0.74593130  0.50152118     1.25400
C455        C  0.50168606  0.68647868  0.56672753     0.86900
C456        C  0.50311595  0.80959197  0.43378521     0.86900
C457        C  0.00361963  0.68935368  0.42873606     0.86900
C458        C  0.99858101  0.80740475  0.57081568     0.87100
C459        C  0.00276522  0.95642998  0.28864482     0.85700
C460        C  0.96044743  0.96311412  0.25157684    -0.54600
C461        C  0.95989792  0.50109739  0.22244812     0.08600
C462        C  0.00158414  0.52975828  0.23486416     0.19600
C463        C  0.54645272  0.96004054  0.25488500    -0.55300
C464        C  0.54553430  0.49783306  0.22600673     0.08700
C465        C  0.99887277  0.49968522  0.32098720    -0.54800
C466        C  0.49908120  0.53759909  0.29315306     0.09300
H467        H  0.93240211  0.94069946  0.24960484     0.13800
H468        H  0.00153443  0.56159733  0.21385905    -0.00500
H469        H  0.57492070  0.93403713  0.25260987     0.14100
H470        H  0.99589406  0.50069452  0.36267532     0.13900
C471        C  0.50012476  0.95628843  0.71525048     0.85700
C472        C  0.54250419  0.96154878  0.75139892    -0.54600
C473        C  0.54095805  0.50130921  0.77763083     0.08600
C474        C  0.49805756  0.53327187  0.76407074     0.19600
C475        C  0.95653131  0.96602240  0.74898482    -0.55300
C476        C  0.95497559  0.50610943  0.77422498     0.08700
C477        C  0.50156049  0.49696968  0.68009994    -0.54800
C478        C  0.99997471  0.53719785  0.70495150     0.09300
H479        H  0.57237678  0.93757083  0.75534642     0.13800
H480        H  0.49733890  0.56562763  0.78521287    -0.00500
H481        H  0.92954225  0.94249007  0.75344752     0.14100
H482        H  0.50388698  0.49416066  0.63842035     0.13900
O483        O  0.79272837  0.56311526  0.94841326    -0.75200
O484        O  0.69752966  0.55940987  0.05331307    -0.75300
O485        O  0.79281103  0.56309524  0.05334280    -0.75300
O486        O  0.69684507  0.55951482  0.94873200    -0.75400
O487        O  0.70569171  0.98521838  0.94839475    -0.75300
O488        O  0.80093867  0.98866864  0.05219665    -0.75300
O489        O  0.70694488  0.98522463  0.05190328    -0.75300
O490        O  0.80086128  0.98869017  0.94745433    -0.75300
Ni491      Ni  0.74475298  0.56403048  0.00086528     1.25400
Ni492      Ni  0.75403835  0.98441128  0.99978760     1.25400
C493        C  0.81240646  0.52635866  0.93086491     0.86900
C494        C  0.68680829  0.52146101  0.07012438     0.86900
C495        C  0.81167458  0.52627551  0.07074815     0.86900
C496        C  0.68449502  0.52154345  0.93258818     0.87100
C497        C  0.57588198  0.51005330  0.81835882    -0.06900
C498        C  0.57783161  0.98227120  0.86140048    -0.18100
C499        C  0.61162320  0.98665429  0.90018269     0.10300
C500        C  0.64506712  0.51907946  0.89542640    -0.06900
C501        C  0.64157247  0.54841996  0.85364231    -0.18100
C502        C  0.60764200  0.54395703  0.81489644     0.10300
S503        S  0.61024324  0.95201412  0.95659944    -0.33100
S504        S  0.60828334  0.58071829  0.76073699    -0.33100
H505        H  0.60045975  0.54730330  0.72404463     0.28300
H506        H  0.56976733  0.93008693  0.94315986     0.28300
H507        H  0.55267201  0.95697521  0.86441130     0.18900
H508        H  0.66674279  0.57365664  0.84994359     0.18900
C509        C  0.91715736  0.51910066  0.81169133    -0.06900
C510        C  0.93037367  0.02731356  0.86269095    -0.18100
C511        C  0.89690011  0.03025564  0.90219508     0.10300
C512        C  0.84873818  0.52683193  0.89049308    -0.06900
C513        C  0.83516126  0.52100047  0.83909987    -0.18100
C514        C  0.86871425  0.51718787  0.79957279     0.10300
S515        S  0.91841704  0.03576383  0.96686053    -0.33100
S516        S  0.84728767  0.50940645  0.73481108    -0.33100
H517        H  0.88594550  0.52574254  0.70933173     0.28300
H518        H  0.88659506  0.00785003  0.98904188     0.28300
H519        H  0.96741632  0.02827635  0.87238957     0.18900
H520        H  0.79821939  0.51852872  0.82982680     0.18900
C521        C  0.65028290  0.51798920  0.11039006    -0.06900
C522        C  0.62601287  0.97883218  0.11050060    -0.18100
C523        C  0.59109891  0.97218106  0.14657414     0.10300
C524        C  0.58071663  0.50461889  0.18537482    -0.06900
C525        C  0.60382858  0.54435365  0.18491959    -0.18100
C526        C  0.63869582  0.55133703  0.14824692     0.10300
S527        S  0.55921152  0.92274155  0.13868744    -0.33100
S528        S  0.66754765  0.60273417  0.15338589    -0.33100
H529        H  0.71319859  0.58328730  0.14450858     0.28300
H530        H  0.51503803  0.94378981  0.15157606     0.28300
H531        H  0.63332047  0.95338716  0.08115113     0.18900
H532        H  0.59547425  0.56968377  0.21409606     0.18900
C533        C  0.92119527  0.51312223  0.18465088    -0.06900
C534        C  0.87549999  0.50067196  0.19591570    -0.18100
C535        C  0.83876160  0.50580560  0.16024563     0.10300
C536        C  0.84641177  0.52652183  0.11291140    -0.06900
C537        C  0.89032768  0.04286155  0.10327152    -0.18100
C538        C  0.92847643  0.03462600  0.13713866     0.10300
S539        S  0.78326841  0.48437274  0.17738376    -0.33100
S540        S  0.98634555  0.04662026  0.11484486    -0.33100
H541        H  0.97176125  0.07238227  0.07206804     0.28500
H542        H  0.75520243  0.51377050  0.14693200     0.28300
H543        H  0.86819480  0.48585849  0.23257161     0.18900
H544        H  0.89551384  0.05941306  0.06732074     0.18900
C545        C  0.00451029  0.84598240  0.39640309    -0.06900
C546        C  0.98219404  0.84162127  0.34862280    -0.18100
C547        C  0.98490697  0.87402394  0.31046012     0.10300
C548        C  0.00621414  0.91440413  0.32213867    -0.06900
C549        C  0.53246878  0.91605779  0.36818930    -0.18100
C550        C  0.53132397  0.88308360  0.40543855     0.10300
S551        S  0.96790777  0.85756448  0.24648866    -0.33100
S552        S  0.56420973  0.89147248  0.46393781    -0.33100
H553        H  0.53476940  0.86960043  0.49692509     0.28300
H554        H  0.00232085  0.88089364  0.22170748     0.28300
H555        H  0.96497981  0.81136395  0.33983698     0.18900
H556        H  0.55329662  0.94416389  0.37620559     0.18900
C557        C  0.50293646  0.65384509  0.38843821    -0.06900
C558        C  0.96024101  0.63357034  0.38045650    -0.18100
C559        C  0.95707250  0.59804037  0.34598181     0.10300
C560        C  0.49741314  0.58159893  0.31874950    -0.06900
C561        C  0.53937231  0.60300348  0.32396352    -0.18100
C562        C  0.54267357  0.63884551  0.35843937     0.10300
S563        S  0.90103002  0.57381196  0.33979962    -0.33100
S564        S  0.59851612  0.66335510  0.36240477    -0.33100
H565        H  0.60782340  0.64667139  0.41209920     0.28300
H566        H  0.90686401  0.56172049  0.28770956     0.28300
H567        H  0.92900517  0.64460829  0.40216573     0.18900
H568        H  0.57052295  0.59011265  0.30323659     0.18900
C569        C  0.49675967  0.91306458  0.68393293    -0.06900
C570        C  0.96453839  0.91495198  0.64254197    -0.18100
C571        C  0.96452449  0.88142184  0.60517524     0.10300
C572        C  0.49631710  0.84344997  0.60972349    -0.06900
C573        C  0.52473652  0.83880307  0.65379881    -0.18100
C574        C  0.52345259  0.87198999  0.69224676     0.10300
S575        S  0.92430934  0.89079770  0.55181973    -0.33100
S576        S  0.54898201  0.85554959  0.75327605    -0.33100
H577        H  0.51487362  0.88064335  0.78269919     0.28300
H578        H  0.95483027  0.87225730  0.51375954     0.28300
H579        H  0.94050730  0.94423987  0.63768418     0.18900
H580        H  0.54617399  0.80798643  0.65959578     0.18900
C581        C  0.00270121  0.57893199  0.67520229    -0.06900
C582        C  0.53739638  0.57929938  0.63686019    -0.18100
C583        C  0.53723790  0.61327993  0.60077518     0.10300
C584        C  0.00257898  0.64931149  0.60372690    -0.06900
C585        C  0.96866870  0.64991654  0.64308661    -0.18100
C586        C  0.96829819  0.61505208  0.67883602     0.10300
S587        S  0.57993939  0.60640787  0.54949236    -0.33100
S588        S  0.92228903  0.61586530  0.72664451    -0.33100
H589        H  0.89889157  0.65666036  0.71237117     0.28300
H590        H  0.54793019  0.62018028  0.51042676     0.28300
H591        H  0.56367762  0.55150469  0.63338013     0.18900
H592        H  0.94226975  0.67762202  0.64549197     0.18900
loop_ 
_geom_bond_atom_site_label_1 
_geom_bond_atom_site_label_2 
_geom_bond_distance 
_geom_bond_site_symmetry_2 
_ccdc_geom_bond_type 
O1           Ni9   1.928       .  S
O1          C307   1.284       .  A
O2           Ni9   1.927       .  S
O2          C308   1.283       .  A
O3           Ni9   1.901       .  S
O3           C13   1.279       .  A
O4           Ni9   1.903       .  S
O4           C14   1.278       .  A
O5          Ni10   1.922       .  S
O5          C310   1.283   1_455  A
O6          Ni10   1.925       .  S
O6          C309   1.282       .  A
O7          Ni10   1.908       .  S
O7           C12   1.278       .  A
O8          Ni10   1.906       .  S
O8           C11   1.279       .  A
Ni9        Ni306   2.387       .  S
Ni10       Ni305   2.387   1_455  S
C11         O297   1.284   1_455  A
C11         C436   1.480       .  S
C12         O298   1.283   1_455  A
C12         C397   1.474       .  S
C13         O302   1.282       .  A
C13         C409   1.488       .  S
C14         O301   1.283       .  A
C14         C424   1.471       .  S
C15          C16   1.542       .  S
C15         C169   1.538       .  S
C15         C315   1.533       .  S
C15         C104   1.539       .  S
C16          H23   1.080       .  S
C16         C165   1.376       .  D
C17          C18   1.544       .  S
C17         C164   1.376   1_545  D
C17          C89   1.501       .  S
C18         C318   1.531       .  S
C18         C316   1.537   1_545  S
C18          H24   1.107       .  S
C19         C311   1.533       .  S
C19          H25   1.086       .  S
C19         C168   1.367       .  D
C20         C314   1.537   1_565  S
C20         C167   1.367       .  D
C20          C80   1.481   1_565  S
C21         C163   1.538       .  S
C21          H26   1.086   1_565  S
C21         C318   1.356   1_565  D
C22         C314   1.531   1_655  S
C22         C317   1.356   1_545  D
C22         C116   1.471       .  S
C27          C28   1.541       .  S
C27         C181   1.537       .  S
C27         C327   1.529   1_455  S
C27         C125   1.534   1_455  S
C28          H35   1.080       .  S
C28         C177   1.367       .  D
C29          C30   1.541   1_455  S
C29         C176   1.367   1_545  D
C29          C53   1.483       .  S
C30         C330   1.543       .  S
C30         C328   1.543       .  S
C30          H36   1.110       .  S
C31         C323   1.529       .  S
C31          H37   1.086       .  S
C31         C180   1.363       .  D
C32         C326   1.543       .  S
C32         C179   1.363   1_545  D
C32          C65   1.481       .  S
C33         C175   1.537       .  S
C33          H38   1.087       .  S
C33         C330   1.362   1_465  D
C34         C326   1.543       .  S
C34         C329   1.362   1_545  D
C34         C137   1.487       .  S
O39         Ni47   1.929   1_556  S
O39          C49   1.282       .  A
O40         Ni47   1.928       .  S
O40          C50   1.283       .  A
O41         Ni47   1.926       .  S
O41          C51   1.282       .  A
O42         Ni47   1.928   1_556  S
O42          C52   1.283       .  A
O43         Ni48   1.913       .  S
O43         C200   1.280       .  A
O44         Ni48   1.912   1_554  S
O44         C199   1.280       .  A
O45         Ni48   1.905   1_554  S
O45         C198   1.281       .  A
O46         Ni48   1.917       .  S
O46         C197   1.280       .  A
Ni47       Ni196   2.389   1_544  S
Ni48       Ni195   2.389   1_556  S
C49         O194   1.280   1_545  A
C49          C68   1.475       .  S
C50         O193   1.281   1_545  A
C50          C77   1.485       .  S
C51         O192   1.280   1_545  A
C51          C92   1.473       .  S
C52         O191   1.280   1_545  A
C52          C56   1.482       .  S
C53          C58   1.412       .  A
C53         C202   1.401   1_545  A
C54          C55   1.402       .  A
C54         C201   1.401       .  A
C54          H63   1.083       .  S
C55         C204   1.415       .  A
C55          S59   1.809       .  S
C56          C57   1.405       .  A
C56         C203   1.415   1_545  A
C57          C58   1.404       .  A
C57          H64   1.084       .  S
C58          S60   1.800       .  S
S59          H62   1.407       .  S
S60          H61   1.405       .  S
C65          C70   1.417       .  A
C65         C214   1.400       .  A
C66          C67   1.399       .  A
C66         C213   1.400       .  A
C66          H75   1.084       .  S
C67         C216   1.412       .  A
C67          S71   1.796       .  S
C68          C69   1.401       .  A
C68         C215   1.412       .  A
C69          C70   1.401       .  A
C69          H76   1.084       .  S
C70          S72   1.806       .  S
S71          H74   1.405       .  S
S72          H73   1.405       .  S
C77          C82   1.419       .  A
C77         C226   1.405   1_545  A
C78          C79   1.393       .  A
C78         C225   1.405       .  A
C78          H87   1.084       .  S
C79         C228   1.411       .  A
C79          S83   1.803       .  S
C80          C81   1.403       .  A
C80         C227   1.411   1_545  A
C81          C82   1.404       .  A
C81          H88   1.083       .  S
C82          S84   1.802       .  S
S83          H86   1.405       .  S
S84          H85   1.404       .  S
C89          C90   1.409       .  A
C89         C242   1.422       .  A
C90          C91   1.396       .  A
C90          H99   1.082   1_545  S
C91          C92   1.409       .  A
C91          S95   1.804   1_545  S
C92         C241   1.397       .  A
C93          C94   1.405       .  A
C93         C240   1.397       .  A
C93         H100   1.078       .  S
C94         C237   1.422       .  A
C94          S96   1.807       .  S
S95          H98   1.399   1_565  S
S96          H97   1.406       .  S
C101        C308   1.474       .  S
C101        C102   1.401       .  A
C101        C402   1.411       .  A
C102        C103   1.403       .  A
C102        H111   1.084       .  S
C103        C104   1.423       .  A
C103        S107   1.803       .  S
C104        C401   1.411       .  A
C105        C106   1.395       .  A
C105        C400   1.411       .  A
C105        H112   1.083       .  S
C106        C397   1.411       .  A
C106        S108   1.807       .  S
S107        H110   1.404       .  S
S108        H109   1.400       .  S
C113        C309   1.488       .  S
C113        C118   1.418       .  A
C113        C410   1.409   1_455  A
C114        C115   1.393       .  A
C114        C409   1.409       .  A
C114        H123   1.083       .  S
C115        C412   1.406       .  A
C115        S119   1.803       .  S
C116        C117   1.400   1_655  A
C116        C411   1.406       .  A
C117        C118   1.401       .  A
C117        H124   1.083       .  S
C118        S120   1.798       .  S
S119        H122   1.404       .  S
S120        H121   1.408       .  S
C125        C130   1.421   1_655  A
C125        C422   1.409       .  A
C126        C127   1.391       .  A
C126        C421   1.409       .  A
C126        H135   1.084       .  S
C127        C424   1.411       .  A
C127        S131   1.806       .  S
C128        C310   1.471       .  S
C128        C129   1.402   1_655  A
C128        C423   1.411       .  A
C129        C130   1.402       .  A
C129        H136   1.084       .  S
C130        S132   1.802       .  S
S131        H134   1.402       .  S
S132        H133   1.408       .  S
C137        C142   1.412       .  A
C137        C434   1.404       .  A
C138        C139   1.394       .  A
C138        C433   1.404       .  A
C138        H147   1.084       .  S
C139        C436   1.414       .  A
C139        S143   1.805       .  S
C140        C307   1.480       .  S
C140        C141   1.406       .  A
C140        C435   1.414       .  A
C141        C142   1.409       .  A
C141        H148   1.083       .  S
C142        S144   1.805       .  S
S143        H146   1.407       .  S
S144        H145   1.406       .  S
O149       Ni157   1.928       .  S
O149        C455   1.284       .  A
O150       Ni157   1.927       .  S
O150        C456   1.283       .  A
O151       Ni157   1.901       .  S
O151        C161   1.279       .  A
O152       Ni157   1.903       .  S
O152        C162   1.278       .  A
O153       Ni158   1.922       .  S
O153        C458   1.283   1_455  A
O154       Ni158   1.925       .  S
O154        C457   1.282       .  A
O155       Ni158   1.908       .  S
O155        C160   1.278       .  A
O156       Ni158   1.906       .  S
O156        C159   1.279       .  A
Ni157      Ni454   2.387       .  S
Ni158      Ni453   2.387   1_455  S
C159        O445   1.284   1_455  A
C159        C584   1.480       .  S
C160        O446   1.283   1_455  A
C160        C545   1.474       .  S
C161        O450   1.282       .  A
C161        C557   1.488       .  S
C162        O449   1.283       .  A
C162        C572   1.471       .  S
C163        C164   1.542       .  S
C163        C463   1.533       .  S
C163        C252   1.539       .  S
C164        H171   1.080       .  S
C165        C166   1.544       .  S
C165        C237   1.501       .  S
C166        C466   1.531       .  S
C166        C464   1.537       .  S
C166        H172   1.107       .  S
C167        C459   1.533       .  S
C167        H173   1.086       .  S
C168        C462   1.537       .  S
C168        C228   1.481       .  S
C169        H174   1.086       .  S
C169        C466   1.356       .  D
C170        C462   1.531   1_655  S
C170        C465   1.356       .  D
C170        C264   1.471       .  S
C175        C176   1.541       .  S
C175        C475   1.529   1_455  S
C175        C273   1.534   1_455  S
C176        H183   1.080       .  S
C177        C178   1.541   1_455  S
C177        C201   1.483       .  S
C178        C478   1.543       .  S
C178        C476   1.543       .  S
C178        H184   1.110       .  S
C179        C471   1.529       .  S
C179        H185   1.086       .  S
C180        C474   1.543       .  S
C180        C213   1.481       .  S
C181        H186   1.087       .  S
C181        C478   1.362   1_455  D
C182        C474   1.543       .  S
C182        C477   1.362       .  D
C182        C285   1.487       .  S
O187       Ni195   1.929   1_556  S
O187        C197   1.282       .  A
O188       Ni195   1.928       .  S
O188        C198   1.283       .  A
O189       Ni195   1.926       .  S
O189        C199   1.282       .  A
O190       Ni195   1.928   1_556  S
O190        C200   1.283       .  A
O191       Ni196   1.913       .  S
O192       Ni196   1.912   1_554  S
O193       Ni196   1.905   1_554  S
O194       Ni196   1.917       .  S
C197        C216   1.475       .  S
C198        C225   1.485       .  S
C199        C240   1.473       .  S
C200        C204   1.482       .  S
C201        C206   1.412       .  A
C202        C203   1.402       .  A
C202        H211   1.083       .  S
C203        S207   1.809       .  S
C204        C205   1.405       .  A
C205        C206   1.404       .  A
C205        H212   1.084       .  S
C206        S208   1.800       .  S
S207        H210   1.407       .  S
S208        H209   1.405       .  S
C213        C218   1.417       .  A
C214        C215   1.399       .  A
C214        H223   1.084       .  S
C215        S219   1.796       .  S
C216        C217   1.401       .  A
C217        C218   1.401       .  A
C217        H224   1.084       .  S
C218        S220   1.806       .  S
S219        H222   1.405       .  S
S220        H221   1.405       .  S
C225        C230   1.419       .  A
C226        C227   1.393       .  A
C226        H235   1.084       .  S
C227        S231   1.803       .  S
C228        C229   1.403       .  A
C229        C230   1.404       .  A
C229        H236   1.083       .  S
C230        S232   1.802       .  S
S231        H234   1.405       .  S
S232        H233   1.404       .  S
C237        C238   1.409       .  A
C238        C239   1.396       .  A
C238        H247   1.082       .  S
C239        C240   1.409       .  A
C239        S243   1.804       .  S
C241        C242   1.405       .  A
C241        H248   1.078       .  S
C242        S244   1.807       .  S
S243        H246   1.399       .  S
S244        H245   1.406       .  S
C249        C456   1.474       .  S
C249        C250   1.401       .  A
C249        C550   1.411       .  A
C250        C251   1.403       .  A
C250        H259   1.084       .  S
C251        C252   1.423       .  A
C251        S255   1.803       .  S
C252        C549   1.411       .  A
C253        C548   1.411       .  A
C253        C254   1.395       .  A
C253        H260   1.083       .  S
C254        C545   1.411       .  A
C254        S256   1.807       .  S
S255        H258   1.404       .  S
S256        H257   1.400       .  S
C261        C457   1.488       .  S
C261        C558   1.409   1_455  A
C261        C266   1.418       .  A
C262        C557   1.409       .  A
C262        C263   1.393       .  A
C262        H271   1.083       .  S
C263        C560   1.406       .  A
C263        S267   1.803       .  S
C264        C559   1.406       .  A
C264        C265   1.400   1_655  A
C265        C266   1.401       .  A
C265        H272   1.083       .  S
C266        S268   1.798       .  S
S267        H270   1.404       .  S
S268        H269   1.408       .  S
C273        C570   1.409       .  A
C273        C278   1.421   1_655  A
C274        C569   1.409       .  A
C274        C275   1.391       .  A
C274        H283   1.084       .  S
C275        C572   1.411       .  A
C275        S279   1.806       .  S
C276        C458   1.471       .  S
C276        C571   1.411       .  A
C276        C277   1.402   1_655  A
C277        C278   1.402       .  A
C277        H284   1.084       .  S
C278        S280   1.802       .  S
S279        H282   1.402       .  S
S280        H281   1.408       .  S
C285        C582   1.404       .  A
C285        C290   1.412       .  A
C286        C581   1.404       .  A
C286        C287   1.394       .  A
C286        H295   1.084       .  S
C287        C584   1.414       .  A
C287        S291   1.805       .  S
C288        C455   1.480       .  S
C288        C583   1.414       .  A
C288        C289   1.406       .  A
C289        C290   1.409       .  A
C289        H296   1.083       .  S
C290        S292   1.805       .  S
S291        H294   1.407       .  S
S292        H293   1.406       .  S
O297       Ni305   1.928       .  S
O298       Ni305   1.927       .  S
O299       Ni305   1.901       .  S
O299        C309   1.279   1_655  A
O300       Ni305   1.903       .  S
O300        C310   1.278       .  A
O301       Ni306   1.922       .  S
O302       Ni306   1.925       .  S
O303       Ni306   1.908       .  S
O303        C308   1.278       .  A
O304       Ni306   1.906       .  S
O304        C307   1.279       .  A
C311        C312   1.542   1_455  S
C311        C465   1.538   1_455  S
C311        C400   1.539       .  S
C312        H319   1.080       .  S
C312        C461   1.376       .  D
C313        C314   1.544   1_655  S
C313        C460   1.376   1_545  D
C313        C385   1.501       .  S
C314        H320   1.107       .  S
C315        H321   1.086       .  S
C315        C464   1.367       .  D
C316        C463   1.367       .  D
C316        C376   1.481   1_565  S
C317        C459   1.538   1_655  S
C317        H322   1.086   1_565  S
C318        C412   1.471       .  S
C323        C324   1.541       .  S
C323        C477   1.537       .  S
C323        C421   1.534       .  S
C324        H331   1.080       .  S
C324        C473   1.367       .  D
C325        C326   1.541       .  S
C325        C472   1.367   1_545  D
C325        C349   1.483       .  S
C326        H332   1.110       .  S
C327        H333   1.086       .  S
C327        C476   1.363       .  D
C328        C475   1.363   1_545  D
C328        C361   1.481       .  S
C329        C471   1.537       .  S
C329        H334   1.087       .  S
C330        C433   1.487   1_655  S
O335       Ni343   1.929   1_556  S
O335        C345   1.282       .  A
O336       Ni343   1.928       .  S
O336        C346   1.283       .  A
O337       Ni343   1.926       .  S
O337        C347   1.282       .  A
O338       Ni343   1.928   1_556  S
O338        C348   1.283       .  A
O339       Ni344   1.913       .  S
O339        C496   1.280       .  A
O340       Ni344   1.912   1_554  S
O340        C495   1.280       .  A
O341       Ni344   1.905   1_554  S
O341        C494   1.281       .  A
O342       Ni344   1.917       .  S
O342        C493   1.280       .  A
Ni343      Ni492   2.389   1_544  S
Ni344      Ni491   2.389   1_556  S
C345        O490   1.280   1_545  A
C345        C364   1.475       .  S
C346        O489   1.281   1_545  A
C346        C373   1.485       .  S
C347        O488   1.280   1_545  A
C347        C388   1.473       .  S
C348        O487   1.280   1_545  A
C348        C352   1.482       .  S
C349        C498   1.401   1_545  A
C349        C354   1.412       .  A
C350        C497   1.401       .  A
C350        C351   1.402       .  A
C350        H359   1.083       .  S
C351        C500   1.415       .  A
C351        S355   1.809       .  S
C352        C499   1.415   1_545  A
C352        C353   1.405       .  A
C353        C354   1.404       .  A
C353        H360   1.084       .  S
C354        S356   1.800       .  S
S355        H358   1.407       .  S
S356        H357   1.405       .  S
C361        C510   1.400       .  A
C361        C366   1.417       .  A
C362        C509   1.400       .  A
C362        C363   1.399       .  A
C362        H371   1.084       .  S
C363        C512   1.412       .  A
C363        S367   1.796       .  S
C364        C511   1.412       .  A
C364        C365   1.401       .  A
C365        C366   1.401       .  A
C365        H372   1.084       .  S
C366        S368   1.806       .  S
S367        H370   1.405       .  S
S368        H369   1.405       .  S
C373        C522   1.405   1_545  A
C373        C378   1.419       .  A
C374        C521   1.405       .  A
C374        C375   1.393       .  A
C374        H383   1.084       .  S
C375        C524   1.411       .  A
C375        S379   1.803       .  S
C376        C523   1.411   1_545  A
C376        C377   1.403       .  A
C377        C378   1.404       .  A
C377        H384   1.083       .  S
C378        S380   1.802       .  S
S379        H382   1.405       .  S
S380        H381   1.404       .  S
C385        C386   1.409       .  A
C385        C538   1.422       .  A
C386        C387   1.396       .  A
C386        H395   1.082   1_545  S
C387        C388   1.409       .  A
C387        S391   1.804   1_545  S
C388        C537   1.397       .  A
C389        C536   1.397       .  A
C389        C390   1.405       .  A
C389        H396   1.078       .  S
C390        C533   1.422       .  A
C390        S392   1.807       .  S
S391        H394   1.399   1_565  S
S392        H393   1.406       .  S
C397        C398   1.401   1_455  A
C398        C399   1.403       .  A
C398        H407   1.084       .  S
C399        C400   1.423   1_655  A
C399        S403   1.803       .  S
C401        C402   1.395       .  A
C401        H408   1.083       .  S
C402        S404   1.807       .  S
S403        H406   1.404   1_655  S
S404        H405   1.400       .  S
C409        C414   1.418       .  A
C410        C411   1.393       .  A
C410        H419   1.083       .  S
C411        S415   1.803       .  S
C412        C413   1.400       .  A
C413        C414   1.401       .  A
C413        H420   1.083       .  S
C414        S416   1.798       .  S
S415        H418   1.404       .  S
S416        H417   1.408       .  S
C421        C426   1.421       .  A
C422        C423   1.391       .  A
C422        H431   1.084       .  S
C423        S427   1.806       .  S
C424        C425   1.402       .  A
C425        C426   1.402       .  A
C425        H432   1.084       .  S
C426        S428   1.802       .  S
S427        H430   1.402       .  S
S428        H429   1.408       .  S
C433        C438   1.412   1_455  A
C434        C435   1.394       .  A
C434        H443   1.084       .  S
C435        S439   1.805       .  S
C436        C437   1.406   1_455  A
C437        C438   1.409       .  A
C437        H444   1.083       .  S
C438        S440   1.805       .  S
S439        H442   1.407       .  S
S440        H441   1.406       .  S
O445       Ni453   1.928       .  S
O446       Ni453   1.927       .  S
O447       Ni453   1.901       .  S
O447        C457   1.279   1_655  A
O448       Ni453   1.903       .  S
O448        C458   1.278       .  A
O449       Ni454   1.922       .  S
O450       Ni454   1.925       .  S
O451       Ni454   1.908       .  S
O451        C456   1.278       .  A
O452       Ni454   1.906       .  S
O452        C455   1.279       .  A
C459        C460   1.542   1_455  S
C459        C548   1.539       .  S
C460        H467   1.080       .  S
C461        C462   1.544   1_655  S
C461        C533   1.501       .  S
C462        H468   1.107       .  S
C463        H469   1.086       .  S
C464        C524   1.481       .  S
C465        H470   1.086       .  S
C466        C560   1.471       .  S
C471        C472   1.541       .  S
C471        C569   1.534       .  S
C472        H479   1.080       .  S
C473        C474   1.541       .  S
C473        C497   1.483       .  S
C474        H480   1.110       .  S
C475        H481   1.086       .  S
C476        C509   1.481       .  S
C477        H482   1.087       .  S
C478        C581   1.487   1_655  S
O483       Ni491   1.929   1_556  S
O483        C493   1.282       .  A
O484       Ni491   1.928       .  S
O484        C494   1.283       .  A
O485       Ni491   1.926       .  S
O485        C495   1.282       .  A
O486       Ni491   1.928   1_556  S
O486        C496   1.283       .  A
O487       Ni492   1.913       .  S
O488       Ni492   1.912   1_554  S
O489       Ni492   1.905   1_554  S
O490       Ni492   1.917       .  S
C493        C512   1.475       .  S
C494        C521   1.485       .  S
C495        C536   1.473       .  S
C496        C500   1.482       .  S
C497        C502   1.412       .  A
C498        C499   1.402       .  A
C498        H507   1.083       .  S
C499        S503   1.809       .  S
C500        C501   1.405       .  A
C501        C502   1.404       .  A
C501        H508   1.084       .  S
C502        S504   1.800       .  S
S503        H506   1.407       .  S
S504        H505   1.405       .  S
C509        C514   1.417       .  A
C510        C511   1.399       .  A
C510        H519   1.084       .  S
C511        S515   1.796       .  S
C512        C513   1.401       .  A
C513        C514   1.401       .  A
C513        H520   1.084       .  S
C514        S516   1.806       .  S
S515        H518   1.405       .  S
S516        H517   1.405       .  S
C521        C526   1.419       .  A
C522        C523   1.393       .  A
C522        H531   1.084       .  S
C523        S527   1.803       .  S
C524        C525   1.403       .  A
C525        C526   1.404       .  A
C525        H532   1.083       .  S
C526        S528   1.802       .  S
S527        H530   1.405       .  S
S528        H529   1.404       .  S
C533        C534   1.409       .  A
C534        C535   1.396       .  A
C534        H543   1.082       .  S
C535        C536   1.409       .  A
C535        S539   1.804       .  S
C537        C538   1.405       .  A
C537        H544   1.078       .  S
C538        S540   1.807       .  S
S539        H542   1.399       .  S
S540        H541   1.406       .  S
C545        C546   1.401   1_455  A
C546        C547   1.403       .  A
C546        H555   1.084       .  S
C547        C548   1.423   1_655  A
C547        S551   1.803       .  S
C549        C550   1.395       .  A
C549        H556   1.083       .  S
C550        S552   1.807       .  S
S551        H554   1.404   1_655  S
S552        H553   1.400       .  S
C557        C562   1.418       .  A
C558        C559   1.393       .  A
C558        H567   1.083       .  S
C559        S563   1.803       .  S
C560        C561   1.400       .  A
C561        C562   1.401       .  A
C561        H568   1.083       .  S
C562        S564   1.798       .  S
S563        H566   1.404       .  S
S564        H565   1.408       .  S
C569        C574   1.421       .  A
C570        C571   1.391       .  A
C570        H579   1.084       .  S
C571        S575   1.806       .  S
C572        C573   1.402       .  A
C573        C574   1.402       .  A
C573        H580   1.084       .  S
C574        S576   1.802       .  S
S575        H578   1.402       .  S
S576        H577   1.408       .  S
C581        C586   1.412   1_455  A
C582        C583   1.394       .  A
C582        H591   1.084       .  S
C583        S587   1.805       .  S
C584        C585   1.406   1_455  A
C585        C586   1.409       .  A
C585        H592   1.083       .  S
C586        S588   1.805       .  S
S587        H590   1.407       .  S
S588        H589   1.406       .  S
