geometry optimzed in LAMMPS
_audit_creation_date              2020-11-30 
_audit_creation_method            'lammps2cif' 
_symmetry_space_group_name_H-M    'P1' 
_symmetry_Int_Tables_number       1 
_symmetry_cell_setting            triclinic 
loop_ 
_symmetry_equiv_pos_as_xyz 
  x,y,z 
_cell_length_a                    30.941327221618664 
_cell_length_b                    31.01967773995511 
_cell_length_c                    30.90296245692724 
_cell_angle_alpha                 89.8102017172262 
_cell_angle_beta                  89.97331885032891 
_cell_angle_gamma                 89.26717236268992 
loop_ 
_atom_site_label 
_atom_site_type_symbol 
_atom_site_fract_x 
_atom_site_fract_y 
_atom_site_fract_z 
_atom_site_charge 
C1          C  0.12426073  0.84900854  0.46125813     0.01750
C2          C  0.10377794  0.83321087  0.50010178     0.01750
C3          C  0.12687236  0.83949847  0.54046122     0.01750
C4          C  0.15330443  0.87771429  0.54141283     0.01750
C5          C  0.16427269  0.90013943  0.50328576     0.01750
C6          C  0.15599801  0.88143054  0.46339828     0.01750
C7          C  0.15736838  0.10648324  0.54177885     0.01750
C8          C  0.16791283  0.08651246  0.50199191     0.01750
C9          C  0.15679018  0.10746594  0.46259053     0.01750
C10         C  0.12744717  0.14386953  0.46302129     0.01750
C11         C  0.10346400  0.15065103  0.50224473     0.01750
C12         C  0.12273190  0.13727478  0.54186079     0.01750
C13         C  0.89553669  0.14816282  0.53383561     0.01750
C14         C  0.91421423  0.16269032  0.49392953     0.01750
C15         C  0.89257907  0.15216907  0.45403356     0.01750
C16         C  0.86940347  0.11224306  0.45425834     0.01750
C17         C  0.85827683  0.09233953  0.49400258     0.01750
C18         C  0.86574224  0.11347348  0.53346513     0.01750
C19         C  0.89265449  0.85199946  0.53438852     0.01750
C20         C  0.91284358  0.83624897  0.49496285     0.01750
C21         C  0.88985546  0.84493256  0.45474025     0.01750
C22         C  0.86538520  0.88508222  0.45416722     0.01750
C23         C  0.85473514  0.90681933  0.49286717     0.01750
C24         C  0.86294592  0.88715570  0.53271895     0.01750
C25         C  0.54327350  0.15517498  0.11255243     0.01750
C26         C  0.50332100  0.17009337  0.09408895     0.01750
C27         C  0.46305372  0.15744003  0.11393272     0.01750
C28         C  0.46365028  0.11819945  0.13847500     0.01750
C29         C  0.50301906  0.09586831  0.14646718     0.01750
C30         C  0.54270362  0.11652531  0.13793755     0.01750
C31         C  0.53973510  0.13774619  0.88522206     0.01750
C32         C  0.50213817  0.15000441  0.90794032     0.01750
C33         C  0.46139462  0.14026915  0.89013326     0.01750
C34         C  0.45808892  0.11281182  0.85357922     0.01750
C35         C  0.49580177  0.09045432  0.83976715     0.01750
C36         C  0.53713004  0.10673725  0.85141967     0.01750
C37         C  0.54734547  0.88543949  0.14356280     0.01750
C38         C  0.50942074  0.90829661  0.15653867     0.01750
C39         C  0.46914009  0.88969246  0.14812884     0.01750
C40         C  0.46490015  0.86076001  0.11272504     0.01750
C41         C  0.50192298  0.84917128  0.08760919     0.01750
C42         C  0.54358124  0.85842354  0.10548168     0.01750
C43         C  0.54282807  0.88356213  0.84602916     0.01750
C44         C  0.50171627  0.90416009  0.83850548     0.01750
C45         C  0.46309035  0.88332531  0.85187190     0.01750
C46         C  0.46462936  0.84581433  0.87950493     0.01750
C47         C  0.50544758  0.83799240  0.90078727     0.01750
C48         C  0.54415157  0.85333437  0.88155812     0.01750
C49         C  0.15606316  0.45309996  0.88079932     0.01750
C50         C  0.11690967  0.45338104  0.85559962     0.01750
C51         C  0.09503307  0.49251557  0.84571007     0.01750
C52         C  0.11493241  0.53212634  0.85480586     0.01750
C53         C  0.15148094  0.53277092  0.88267958     0.01750
C54         C  0.16706019  0.49326425  0.90091724     0.01750
C55         C  0.14038564  0.45436581  0.10344071     0.01750
C56         C  0.15351069  0.49465634  0.08648957     0.01750
C57         C  0.14323149  0.53310541  0.10891125     0.01750
C58         C  0.11185159  0.53236482  0.14256650     0.01750
C59         C  0.09191269  0.49309205  0.15392208     0.01750
C60         C  0.10939316  0.45393309  0.13725698     0.01750
C61         C  0.88585450  0.45625787  0.16303996     0.01750
C62         C  0.90537520  0.49654011  0.17585311     0.01750
C63         C  0.88560388  0.53659375  0.16165348     0.01750
C64         C  0.86316064  0.53688608  0.12121219     0.01750
C65         C  0.85423990  0.49697505  0.10030710     0.01750
C66         C  0.86060897  0.45702899  0.12355919     0.01750
C67         C  0.88893904  0.45699895  0.86591178     0.01750
C68         C  0.90851825  0.49592719  0.85357568     0.01750
C69         C  0.88771709  0.53595706  0.86264121     0.01750
C70         C  0.84936121  0.53759942  0.88938828     0.01750
C71         C  0.83904932  0.49853694  0.91223558     0.01750
C72         C  0.85405114  0.45836531  0.89554219     0.01750
O73         O  0.10906607  0.94750424  0.81840462    -0.80670
O74         O  0.22159205  0.02526570  0.92046352    -0.80700
O75         O  0.21471673  0.90592092  0.84976578    -0.80700
O76         O  0.15717175  0.08775738  0.79727173    -0.80650
O77         O  0.17801618  0.95183249  0.89085248    -0.80770
O78         O  0.11142396  0.04068973  0.82371496    -0.80690
O79         O  0.19463269  0.06752954  0.86810491    -0.80670
O80         O  0.15565011  0.90138706  0.78808170    -0.80710
C81         C  0.11923528  0.90946904  0.80592571     1.09020
C82         C  0.20402312  0.06083966  0.90832412     1.08900
C83         C  0.19358804  0.91404894  0.88412119     1.09040
C84         C  0.11998324  0.07920770  0.81269624     1.08920
O85         O  0.14507786  0.04023633  0.73595345    -0.80670
O86         O  0.26720628  0.96295957  0.86642472    -0.80750
O87         O  0.20957621  0.94924348  0.72924489    -0.80690
O88         O  0.24972626  0.09700288  0.80399439    -0.80670
O89         O  0.26364666  0.03898279  0.84383923    -0.80720
O90         O  0.13865971  0.95506517  0.73229480    -0.80680
O91         O  0.21635421  0.04378235  0.74019208    -0.80640
O92         O  0.27218815  0.95421443  0.79584140    -0.80710
Co93       Co  0.12858400  0.99572848  0.78082559     1.51530
Co94       Co  0.21284214  0.99951250  0.86499065     1.51690
Co95       Co  0.21264197  0.93168190  0.79066619     1.51570
Co96       Co  0.20980328  0.04967843  0.80401551     1.51470
O97         O  0.18781192  0.98971941  0.80724185    -1.42610
C98         C  0.18165716  0.04725377  0.71814026     1.08940
C99         C  0.28996841  0.95425045  0.83299306     1.09030
C100        C  0.17292492  0.94760323  0.71099764     1.08970
C101        C  0.27670361  0.07380087  0.82531770     1.08950
O102        O  0.04749452  0.10544650  0.82302263    -0.80670
O103        O  0.95601600  0.16951493  0.89113565    -0.80700
O104        O  0.09300887  0.20525871  0.84841048    -0.80700
O105        O  0.91007639  0.14760411  0.78865637    -0.80650
O106        O  0.04794159  0.16933682  0.88948924    -0.80770
O107        O  0.95616583  0.10545338  0.82269730    -0.80690
O108        O  0.90998671  0.20453642  0.84947990    -0.80670
O109        O  0.09381613  0.14726522  0.78964820    -0.80710
C110        C  0.08570676  0.11271418  0.81033708     1.09020
C111        C  0.91821059  0.18399385  0.88425265     1.08900
C112        C  0.08569930  0.18302065  0.88208302     1.09040
C113        C  0.91832232  0.11276975  0.80894677     1.08920
O114        O  0.96012572  0.13485554  0.73142177    -0.80670
O115        O  0.04208934  0.26005531  0.86515653    -0.80750
O116        O  0.04661705  0.20406301  0.72941497    -0.80690
O117        O  0.95480132  0.26634641  0.79469269    -0.80670
O118        O  0.95874736  0.26054284  0.86528255    -0.80720
O119        O  0.04401204  0.13366833  0.73333112    -0.80680
O120        O  0.95519675  0.20545547  0.72996803    -0.80640
O121        O  0.04480100  0.26653826  0.79466370    -0.80710
Co122      Co  0.00174303  0.12419651  0.78187857     1.51530
Co123      Co  0.00120928  0.21064390  0.87312043     1.51690
Co124      Co  0.06353215  0.20550322  0.79075736     1.51570
Co125      Co  0.93848437  0.20550810  0.79113968     1.51470
O126        O  0.00126724  0.18618936  0.80944414    -1.42610
C127        C  0.95212656  0.16982518  0.71081385     1.08940
C128        C  0.04739168  0.28342644  0.83183147     1.09030
C129        C  0.05167546  0.16768604  0.71178367     1.08970
C130        C  0.95145619  0.28330355  0.83157724     1.08950
O131        O  0.05048316  0.88738489  0.17994525    -0.80670
O132        O  0.96251841  0.81720936  0.10769406    -0.80700
O133        O  0.09698240  0.77961042  0.15033020    -0.80700
O134        O  0.91434081  0.84023859  0.21585727    -0.80650
O135        O  0.04849416  0.80803433  0.10618827    -0.80770
O136        O  0.96139095  0.88062558  0.18237498    -0.80690
O137        O  0.91571639  0.79465545  0.15174290    -0.80670
O138        O  0.09917193  0.84198089  0.20688067    -0.80710
C139        C  0.08936233  0.87799282  0.18937555     1.09020
C140        C  0.92403698  0.80988573  0.11541773     1.08900
C141        C  0.08735748  0.79774540  0.11458086     1.09040
C142        C  0.92474868  0.87664648  0.19906836     1.08920
O143        O  0.96694407  0.84811616  0.27229777    -0.80670
O144        O  0.04217850  0.72395640  0.14307825    -0.80750
O145        O  0.05625944  0.78856554  0.27152275    -0.80690
O146        O  0.90690197  0.74346975  0.21400174    -0.80670
O147        O  0.95603163  0.72811580  0.16124194    -0.80720
O148        O  0.05234654  0.85858309  0.26748068    -0.80680
O149        O  0.96870545  0.77759747  0.26730732    -0.80640
O150        O  0.05252592  0.72430182  0.21270902    -0.80710
Co151      Co  0.00743641  0.86566914  0.22196283     1.51530
Co152      Co  0.00199819  0.77342880  0.13369437     1.51690
Co153      Co  0.07085906  0.78449277  0.20978038     1.51570
Co154      Co  0.95043065  0.78464039  0.20670137     1.51470
O155        O  0.00981261  0.80665465  0.19161400    -1.42610
C156        C  0.95990114  0.81088810  0.28906354     1.08940
C157        C  0.05309360  0.70462363  0.17733761     1.09030
C158        C  0.05993544  0.82480902  0.28908871     1.08970
C159        C  0.92457224  0.71641989  0.18786158     1.08950
O160        O  0.21510043  0.83847672  0.09159808    -0.80670
O161        O  0.15736287  0.78639172  0.90544771    -0.80700
O162        O  0.18068168  0.88510180  0.95505721    -0.80700
O163        O  0.11484820  0.81549201  0.04400151    -0.80650
O164        O  0.21575334  0.84509207  0.90836289    -0.80770
O165        O  0.15694592  0.78000877  0.08938185    -0.80690
O166        O  0.11492613  0.81899428  0.95217437    -0.80670
O167        O  0.18141345  0.88212236  0.04624442    -0.80710
C168        C  0.19476445  0.87346380  0.08420063     1.09020
C169        C  0.12225428  0.80638144  0.91391270     1.08900
C170        C  0.19448972  0.87942757  0.91716028     1.09040
C171        C  0.12165911  0.80001199  0.08141320     1.08920
O172        O  0.21452249  0.72160973  0.04191119    -0.80670
O173        O  0.27515668  0.78520161  0.95503102    -0.80750
O174        O  0.27053771  0.85554776  0.04140411    -0.80690
O175        O  0.14306292  0.72807902  0.95330138    -0.80670
O176        O  0.21354244  0.72408583  0.95028119    -0.80720
O177        O  0.27745880  0.78536346  0.04505320    -0.80680
O178        O  0.14385064  0.72620708  0.03717949    -0.80640
O179        O  0.27355118  0.85557877  0.95695710    -0.80710
Co180      Co  0.21554361  0.78190028  0.06073673     1.51530
Co181      Co  0.21512127  0.78556958  0.93555998     1.51690
Co182      Co  0.22243458  0.86510600  0.99947765     1.51570
Co183      Co  0.13368180  0.77645227  0.99678737     1.51470
O184        O  0.19624184  0.80258942  0.99838582    -1.42610
C185        C  0.17800276  0.70431782  0.04524328     1.08940
C186        C  0.29403410  0.82025790  0.94934922     1.09030
C187        C  0.29343020  0.82239812  0.04961239     1.08970
C188        C  0.17747906  0.70647456  0.94553608     1.08950
O189        O  0.10328389  0.14508235  0.21471026    -0.80670
O190        O  0.93785457  0.19435124  0.12982056    -0.80700
O191        O  0.96524457  0.10525629  0.18439725    -0.80700
O192        O  0.04789772  0.17630051  0.11136746    -0.80650
O193        O  0.91687424  0.15260540  0.20529967    -0.80770
O194        O  0.09899704  0.20408642  0.15271394    -0.80690
O195        O  0.98106715  0.23241918  0.08717488    -0.80670
O196        O  0.05465648  0.10037969  0.18875975    -0.80710
C197        C  0.09364044  0.10949863  0.19678222     1.09020
C198        C  0.94559225  0.21313308  0.09287655     1.08900
C199        C  0.92637195  0.11451072  0.19274186     1.09040
C200        C  0.08725973  0.18706328  0.11734943     1.08920
O201        O  0.05574158  0.26428980  0.21039023    -0.80670
O202        O  0.95978110  0.21566743  0.25895053    -0.80750
O203        O  0.05145994  0.13437179  0.27585683    -0.80690
O204        O  0.96500974  0.26450907  0.16774952    -0.80670
O205        O  0.90312861  0.24244566  0.19589082    -0.80720
O206        O  0.05899297  0.20442107  0.27336210    -0.80680
O207        O  0.04477667  0.26171473  0.14062523    -0.80640
O208        O  0.96394834  0.14550538  0.27126439    -0.80710
Co209      Co  0.07489753  0.20389470  0.21250084     1.51530
Co210      Co  0.95362176  0.20553345  0.19591704     1.51690
Co211      Co  0.00885836  0.12444768  0.22706934     1.51570
Co212      Co  0.00354489  0.21346757  0.14121539     1.51470
O213        O  0.01503035  0.18262796  0.19664288    -1.42610
C214        C  0.05554253  0.28243968  0.17400571     1.08940
C215        C  0.95388397  0.18375761  0.28377006     1.09030
C216        C  0.06299300  0.16942983  0.29334516     1.08970
C217        C  0.92703810  0.27327271  0.18385213     1.08950
O218        O  0.15697333  0.90109642  0.21147620    -0.80670
O219        O  0.22164710  0.07946167  0.15083401    -0.80700
O220        O  0.12077856  0.03949428  0.17741483    -0.80700
O221        O  0.18267886  0.94400990  0.11234134    -0.80650
O222        O  0.16358127  0.08360319  0.21168882    -0.80770
O223        O  0.21614637  0.89687235  0.15332518    -0.80690
O224        O  0.18725918  0.03289026  0.11041208    -0.80670
O225        O  0.11697186  0.94873579  0.17675957    -0.80710
C226        C  0.12313192  0.91062118  0.19012074     1.09020
C227        C  0.20411376  0.06930524  0.11522876     1.08900
C228        C  0.12809865  0.07656981  0.19251654     1.09040
C229        C  0.19543665  0.90588755  0.11881835     1.08920
O230        O  0.27625226  0.94208736  0.21097388    -0.80670
O231        O  0.21864590  0.03554172  0.27185652    -0.80750
O232        O  0.14401946  0.95051435  0.26829723    -0.80690
O233        O  0.27640076  0.02667121  0.13635380    -0.80670
O234        O  0.28187881  0.03347587  0.20649300    -0.80720
O235        O  0.21436715  0.94512469  0.27157335    -0.80680
O236        O  0.27435046  0.94337590  0.14025071    -0.80640
O237        O  0.14809344  0.03343747  0.26736338    -0.80710
Co238      Co  0.21577680  0.92692286  0.21135983     1.51530
Co239      Co  0.22070206  0.05199151  0.20993131     1.51690
Co240      Co  0.13689897  0.99273056  0.21818459     1.51570
Co241      Co  0.22611230  0.98672960  0.12925216     1.51470
O242        O  0.19971397  0.98992468  0.19197323    -1.42610
C243        C  0.29521423  0.93845578  0.17537985     1.08940
C244        C  0.18196863  0.03940428  0.28966801     1.09030
C245        C  0.17830176  0.94310433  0.28999443     1.08970
C246        C  0.29809776  0.03784342  0.16917295     1.08950
O247        O  0.23565215  0.08375235  0.04676378    -0.80670
O248        O  0.11109700  0.17214832  0.95363956    -0.80700
O249        O  0.15630892  0.20505512  0.09063510    -0.80700
O250        O  0.21615593  0.13351991  0.92017690    -0.80650
O251        O  0.11113976  0.17597689  0.04421218    -0.80770
O252        O  0.18712830  0.09809608  0.97512748    -0.80690
O253        O  0.15682979  0.19636745  0.90487959    -0.80670
O254        O  0.19949754  0.13634923  0.08067621    -0.80710
C255        C  0.21259248  0.09692690  0.07831472     1.09020
C256        C  0.12006431  0.18103658  0.91481100     1.08900
C257        C  0.11997100  0.18756497  0.08247865     1.09040
C258        C  0.20071802  0.09909152  0.93629414     1.08920
O259        O  0.27328201  0.12819489  0.97716269    -0.80670
O260        O  0.14412784  0.26248290  0.03743616    -0.80750
O261        O  0.24877287  0.20502134  0.10600972    -0.80690
O262        O  0.21300281  0.25843313  0.94530084    -0.80670
O263        O  0.14201670  0.26120116  0.95053337    -0.80720
O264        O  0.27011034  0.16468072  0.05074827    -0.80680
O265        O  0.27279127  0.19633235  0.95935151    -0.80640
O266        O  0.21529186  0.26048309  0.04354573    -0.80710
Co267      Co  0.22104249  0.13402584  0.01532023     1.51530
Co268      Co  0.13006636  0.21490445  0.99651628     1.51690
Co269      Co  0.21118118  0.19794565  0.05629542     1.51570
Co270      Co  0.21403317  0.19620207  0.93614891     1.51470
O271        O  0.19011431  0.18761451  0.99609962    -1.42610
C272        C  0.29283811  0.16098430  0.96280494     1.08940
C273        C  0.17973801  0.28138349  0.04460987     1.09030
C274        C  0.27935808  0.18707449  0.08466000     1.08970
C275        C  0.17795327  0.27885638  0.94098064     1.08950
O276        O  0.85673516  0.09068895  0.20974163    -0.80670
O277        O  0.79270681  0.91286181  0.14768988    -0.80700
O278        O  0.91564410  0.95294969  0.20235256    -0.80700
O279        O  0.82497499  0.05006239  0.10876416    -0.80650
O280        O  0.85625817  0.91197370  0.20508907    -0.80770
O281        O  0.79389985  0.09759950  0.15163898    -0.80690
O282        O  0.82445606  0.95930293  0.10538787    -0.80670
O283        O  0.90103786  0.04190138  0.18113745    -0.80710
C284        C  0.89293262  0.08045405  0.19335924     1.09020
C285        C  0.81317504  0.92095201  0.11315625     1.08900
C286        C  0.89776688  0.91577613  0.20238657     1.09040
C287        C  0.81431811  0.08873089  0.11702955     1.08920
O288        O  0.73483225  0.05387036  0.20911330    -0.80670
O289        O  0.79571958  0.95302202  0.26781031    -0.80750
O290        O  0.87052627  0.02288659  0.25955610    -0.80690
O291        O  0.73386635  0.96290964  0.13522470    -0.80670
O292        O  0.73413609  0.95825567  0.20621177    -0.80720
O293        O  0.80325740  0.04793068  0.26857526    -0.80680
O294        O  0.73536210  0.04814432  0.13782936    -0.80640
O295        O  0.86393401  0.96856575  0.26273241    -0.80710
Co296      Co  0.79689357  0.06721088  0.20912846     1.51530
Co297      Co  0.79478541  0.94060348  0.20612794     1.51690
Co298      Co  0.86671117  0.99013135  0.19966918     1.51570
Co299      Co  0.78276960  0.00512839  0.12526431     1.51470
O300        O  0.80771162  0.00481369  0.18696050    -1.42610
C301        C  0.71520072  0.05498256  0.17318398     1.08940
C302        C  0.83220698  0.95461960  0.28516639     1.09030
C303        C  0.84129144  0.04265115  0.28312933     1.08970
C304        C  0.71493610  0.95398476  0.17074103     1.08950
O305        O  0.80306800  0.16021054  0.09192425    -0.80670
O306        O  0.84948869  0.20524703  0.90726501    -0.80700
O307        O  0.82136532  0.10315506  0.95300033    -0.80700
O308        O  0.91935140  0.23032839  0.02160945    -0.80650
O309        O  0.78876414  0.14623884  0.90552197    -0.80770
O310        O  0.87327276  0.20079904  0.06835761    -0.80690
O311        O  0.89125620  0.17465564  0.95707317    -0.80670
O312        O  0.82916572  0.11306419  0.04537075    -0.80710
C313        C  0.81826330  0.12267350  0.08382013     1.09020
C314        C  0.88440137  0.18565566  0.91789150     1.08900
C315        C  0.80849040  0.11111259  0.91453634     1.09040
C316        C  0.91184306  0.21411821  0.05875560     1.08920
O317        O  0.80656861  0.25307010  0.09752334    -0.80670
O318        O  0.72880070  0.20209474  0.94996906    -0.80750
O319        O  0.74043699  0.14363175  0.04632167    -0.80690
O320        O  0.86226256  0.26384158  0.95858397    -0.80670
O321        O  0.79160663  0.26537628  0.95047352    -0.80720
O322        O  0.74167934  0.21481375  0.04781075    -0.80680
O323        O  0.84204896  0.26758312  0.03683041    -0.80640
O324        O  0.73360593  0.13205030  0.96106804    -0.80710
Co325      Co  0.80665121  0.21114775  0.05177567     1.51530
Co326      Co  0.78993006  0.20470945  0.93245681     1.51690
Co327      Co  0.78421981  0.12573255  0.00113684     1.51570
Co328      Co  0.86427554  0.21424314  0.00040507     1.51470
O329        O  0.80801035  0.18545246  0.99240250    -1.42610
C330        C  0.82588521  0.28008207  0.07324287     1.08940
C331        C  0.71147552  0.16533855  0.95073394     1.09030
C332        C  0.72093210  0.17965751  0.05237294     1.08970
C333        C  0.82748690  0.28434307  0.94958906     1.08950
O334        O  0.09554763  0.84047547  0.78444741    -0.80670
O335        O  0.91265621  0.78457599  0.84701221    -0.80700
O336        O  0.95910565  0.88457833  0.81681320    -0.80700
O337        O  0.05035822  0.82027417  0.88709656    -0.80650
O338        O  0.91198602  0.84200336  0.78608870    -0.80770
O339        O  0.09623481  0.78448045  0.84623640    -0.80690
O340        O  0.95839952  0.82037322  0.88714906    -0.80670
O341        O  0.04890935  0.88207415  0.81756616    -0.80710
C342        C  0.08683041  0.87520163  0.80461891     1.09020
C343        C  0.92063447  0.80627750  0.88077834     1.08900
C344        C  0.92073162  0.87743696  0.80474522     1.09040
C345        C  0.08828996  0.80608701  0.88029129     1.08920
O346        O  0.04907270  0.72285256  0.79308582    -0.80670
O347        O  0.95718848  0.78330230  0.72671871    -0.80750
O348        O  0.04734781  0.84940504  0.72574487    -0.80690
O349        O  0.96365569  0.72943295  0.86436050    -0.80670
O350        O  0.95917501  0.72185231  0.79406252    -0.80720
O351        O  0.04696649  0.77941523  0.72829799    -0.80680
O352        O  0.04733889  0.72846181  0.86356490    -0.80640
O353        O  0.96217348  0.85358504  0.72896203    -0.80710
Co354      Co  0.06626234  0.78242730  0.78837049     1.51530
Co355      Co  0.94128406  0.78326524  0.78875092     1.51690
Co356      Co  0.00463184  0.86324600  0.77638526     1.51570
Co357      Co  0.00491430  0.77874786  0.87082619     1.51470
O358        O  0.00392833  0.80230948  0.80658933    -1.42610
C359        C  0.05423244  0.70612774  0.82965258     1.08940
C360        C  0.95445550  0.81956374  0.70803283     1.09030
C361        C  0.05489679  0.81294197  0.70749480     1.08970
C362        C  0.95724359  0.70558998  0.83171348     1.08950
O363        O  0.89238900  0.04102554  0.82121086    -0.80670
O364        O  0.82631839  0.95123408  0.88454784    -0.80700
O365        O  0.78943451  0.08708159  0.84499776    -0.80700
O366        O  0.85262473  0.90457586  0.78339073    -0.80650
O367        O  0.82327991  0.04044214  0.88658487    -0.80770
O368        O  0.89357403  0.94932034  0.81899270    -0.80690
O369        O  0.79378014  0.90487771  0.84296352    -0.80670
O370        O  0.85052979  0.08801621  0.78745987    -0.80710
C371        C  0.88498514  0.07922981  0.80827993     1.09020
C372        C  0.81400756  0.91335383  0.87774845     1.08900
C373        C  0.80930311  0.07826314  0.88005145     1.09040
C374        C  0.88698706  0.91180525  0.80448609     1.08920
O375        O  0.86690116  0.95593368  0.72787128    -0.80670
O376        O  0.73290240  0.03663413  0.85683813    -0.80750
O377        O  0.79699196  0.04437588  0.72382813    -0.80690
O378        O  0.73412705  0.95337877  0.78497791    -0.80670
O379        O  0.73465432  0.95232814  0.85555001    -0.80720
O380        O  0.86732434  0.03971321  0.73010089    -0.80680
O381        O  0.79642412  0.95274298  0.72389162    -0.80640
O382        O  0.73110144  0.04311003  0.78611230    -0.80710
Co383      Co  0.87534469  0.99642508  0.77877121     1.51530
Co384      Co  0.78346383  0.99523934  0.86645988     1.51690
Co385      Co  0.79254458  0.05957461  0.78592994     1.51570
Co386      Co  0.79448829  0.93462277  0.78442036     1.51470
O387        O  0.81189405  0.99664992  0.80417328    -1.42610
C388        C  0.83274053  0.94917481  0.70597883     1.08940
C389        C  0.71188641  0.04461240  0.82223357     1.09030
C390        C  0.83412223  0.04760829  0.70699930     1.08970
C391        C  0.71497746  0.94623005  0.81991302     1.08950
O392        O  0.82994313  0.89185233  0.04247164    -0.80670
O393        O  0.89479908  0.82053265  0.95229428    -0.80700
O394        O  0.85489940  0.79050019  0.09091043    -0.80700
O395        O  0.79383978  0.84649455  0.90592942    -0.80650
O396        O  0.89702535  0.82144040  0.04315778    -0.80770
O397        O  0.82928950  0.88868725  0.94997238    -0.80690
O398        O  0.85227327  0.78679919  0.90746995    -0.80670
O399        O  0.79616521  0.85111449  0.08957499    -0.80710
C400        C  0.81571154  0.88593727  0.08049465     1.09020
C401        C  0.88713699  0.80687524  0.91471728     1.08900
C402        C  0.88984344  0.80981012  0.08180705     1.09040
C403        C  0.81478041  0.88073733  0.91247875     1.08920
O404        O  0.73837492  0.86437789  0.95599135    -0.80670
O405        O  0.86794822  0.73213103  0.04187714    -0.80750
O406        O  0.73500362  0.79563034  0.04461180    -0.80690
O407        O  0.79454320  0.73061465  0.95820835    -0.80670
O408        O  0.86508433  0.72976984  0.95700320    -0.80720
O409        O  0.73970789  0.86584823  0.03961246    -0.80680
O410        O  0.73404693  0.79418143  0.95599531    -0.80640
O411        O  0.79763235  0.72950016  0.04717446    -0.80710
Co412      Co  0.78874337  0.87302246  0.99713601     1.51530
Co413      Co  0.87682248  0.78022887  0.99845383     1.51690
Co414      Co  0.79627323  0.79199257  0.06219448     1.51570
Co415      Co  0.79430788  0.78995208  0.93763912     1.51470
O416        O  0.81468247  0.80947323  0.99907250    -1.42610
C417        C  0.71627998  0.83048548  0.95061752     1.08940
C418        C  0.83407970  0.71065356  0.04993086     1.09030
C419        C  0.71694820  0.83248532  0.04516549     1.08970
C420        C  0.82924858  0.71072049  0.95100991     1.08950
C421        C  0.91239970  0.57604277  0.85305091    -0.06000
C422        C  0.92758750  0.60055930  0.88765584    -0.33430
C423        C  0.94265907  0.64225681  0.88112783     0.35820
C424        C  0.94510514  0.65974374  0.83879033    -0.06360
C425        C  0.93313648  0.63369512  0.80371177    -0.33330
C426        C  0.91683425  0.59204934  0.81055609     0.35720
H427        H  0.92492932  0.58852892  0.92041919     0.16090
O428        O  0.95404398  0.66584842  0.91675220    -0.60830
H429        H  0.93443393  0.64629617  0.77101751     0.16110
O430        O  0.90080385  0.56919085  0.77627872    -0.60920
H431        H  0.92481280  0.56664791  0.75512834     0.43110
H432        H  0.92639951  0.67528187  0.93011167     0.43060
C433        C  0.82722180  0.66698454  0.93261510    -0.06000
C434        C  0.80941119  0.63374426  0.95696798    -0.33430
C435        C  0.80782676  0.59150343  0.94066808     0.35820
C436        C  0.82842482  0.58164013  0.90074349    -0.06360
C437        C  0.83271835  0.61718991  0.87234040    -0.33330
C438        C  0.83459755  0.65945301  0.88840087     0.35720
H439        H  0.79475359  0.64103778  0.98777394     0.16090
O440        O  0.77887815  0.56361368  0.95879747    -0.60830
H441        H  0.83821101  0.61205901  0.83821368     0.16110
O442        O  0.84198640  0.69297021  0.86037282    -0.60920
H443        H  0.87060779  0.70439920  0.86841459     0.43110
H444        H  0.78163601  0.56634184  0.99068981     0.43060
C445        C  0.90976969  0.41441548  0.85437697    -0.06000
C446        C  0.89869014  0.39421874  0.81535186    -0.33430
C447        C  0.91340091  0.35210058  0.80607204     0.35820
C448        C  0.93865881  0.32919033  0.83666249    -0.06360
C449        C  0.95078183  0.34994379  0.87462909    -0.33330
C450        C  0.93746444  0.39215459  0.88348591     0.35720
H451        H  0.87755598  0.41071657  0.79259787     0.16090
O452        O  0.90065184  0.33284584  0.76839729    -0.60830
H453        H  0.97040789  0.33297586  0.89825673     0.16110
O454        O  0.95207005  0.41159608  0.92041807    -0.60920
H455        H  0.95467057  0.38929821  0.94341841     0.43110
H456        H  0.92267627  0.34107943  0.74666692     0.43060
C457        C  0.82914792  0.33024038  0.93868290    -0.06000
C458        C  0.85567799  0.35671721  0.96315273    -0.33430
C459        C  0.86061581  0.40000445  0.95232913     0.35820
C460        C  0.84017355  0.41688362  0.91499324    -0.06360
C461        C  0.81228546  0.39065093  0.89127057    -0.33330
C462        C  0.80619439  0.34760470  0.90327839     0.35720
H463        H  0.87344139  0.34351771  0.99029010     0.16090
O464        O  0.88861303  0.42444514  0.97600327    -0.60830
H465        H  0.79701601  0.40298885  0.86213233     0.16110
O466        O  0.78086099  0.32186829  0.87805557    -0.60920
H467        H  0.75111313  0.32592636  0.88940561     0.43110
H468        H  0.87918449  0.42203031  0.00653863     0.43060
C469        C  0.91234010  0.67002488  0.19041812    -0.06000
C470        C  0.86944833  0.65573896  0.19047541    -0.33430
C471        C  0.86043093  0.61088756  0.18856652     0.35820
C472        C  0.89456832  0.58026724  0.18244861    -0.06360
C473        C  0.93687236  0.59545740  0.18796763    -0.33330
C474        C  0.94492451  0.63890840  0.19553344     0.35720
H475        H  0.84314659  0.67909891  0.19109808     0.16090
O476        O  0.81846693  0.59682839  0.19089261    -0.60830
H477        H  0.96489617  0.57582094  0.18269763     0.16110
O478        O  0.98494489  0.65073602  0.20910038    -0.60920
H479        H  0.98438723  0.64766170  0.24104480     0.43110
H480        H  0.80011410  0.61800594  0.17501587     0.43060
C481        C  0.85478802  0.57958258  0.09801299    -0.06000
C482        C  0.81234359  0.59485966  0.09055718    -0.33430
C483        C  0.80429716  0.63733803  0.07519638     0.35820
C484        C  0.83913348  0.66458579  0.06454626    -0.06360
C485        C  0.88121149  0.64791219  0.06920094    -0.33330
C486        C  0.88927906  0.60698631  0.08694328     0.35720
H487        H  0.78529944  0.57473469  0.09918067     0.16090
O488        O  0.76248534  0.65235489  0.07234773    -0.60830
H489        H  0.90874400  0.66745568  0.06074072     0.16110
O490        O  0.93128871  0.59370490  0.09339152    -0.60920
H491        H  0.94741588  0.61898851  0.10401552     0.43110
H492        H  0.74860695  0.63482969  0.04958992     0.43060
C493        C  0.91415333  0.31989541  0.18932357    -0.06000
C494        C  0.94719551  0.34978192  0.19165975    -0.33430
C495        C  0.93935656  0.39430710  0.19039029     0.35820
C496        C  0.89685635  0.41153965  0.18405676    -0.06360
C497        C  0.86325553  0.38130228  0.19068507    -0.33330
C498        C  0.87141050  0.33608109  0.19267167     0.35720
H499        H  0.98018529  0.33851794  0.19553452     0.16090
O500        O  0.97345159  0.41920011  0.20098085    -0.60830
H501        H  0.83008995  0.39262260  0.19127535     0.16110
O502        O  0.83737221  0.30857765  0.19734856    -0.60920
H503        H  0.83406631  0.29435445  0.16894880     0.43110
H504        H  0.99553815  0.41387501  0.17847109     0.43060
C505        C  0.84890024  0.41460138  0.10321594    -0.06000
C506        C  0.88235845  0.38682237  0.08957508    -0.33430
C507        C  0.87493332  0.34314179  0.08117117     0.35820
C508        C  0.83305637  0.32601848  0.08527011    -0.06360
C509        C  0.79894984  0.35393651  0.09713216    -0.33330
C510        C  0.80665554  0.39785213  0.10630797     0.35720
H511        H  0.91519801  0.39822212  0.08850427     0.16090
O512        O  0.90956626  0.31637183  0.07253100    -0.60830
H513        H  0.76644411  0.34165024  0.09972436     0.16110
O514        O  0.77315986  0.42367039  0.12025998    -0.60920
H515        H  0.76772598  0.41497958  0.15065255     0.43110
H516        H  0.92293673  0.32748352  0.04562309     0.43060
C517        C  0.83750637  0.50019057  0.96044033    -0.06000
C518        C  0.87344798  0.51779502  0.98024264    -0.33430
C519        C  0.87949807  0.51582766  0.02465686     0.35820
C520        C  0.84764601  0.49759463  0.05189021    -0.06360
C521        C  0.81013735  0.48119233  0.03226851    -0.33330
C522        C  0.80552121  0.48106569  0.98669387     0.35720
H523        H  0.89864149  0.53146168  0.96059715     0.16090
O524        O  0.91832791  0.52914787  0.04077100    -0.60830
H525        H  0.78450284  0.46838574  0.05200259     0.16110
O526        O  0.76909686  0.46434654  0.96822959    -0.60920
H527        H  0.76988231  0.43311203  0.97520382     0.43110
H528        H  0.92779986  0.55438811  0.02350876     0.43060
C529        C  0.06677125  0.65939072  0.17374312    -0.06000
C530        C  0.04631246  0.63515948  0.14207936    -0.33430
C531        C  0.05761567  0.59251877  0.13530503     0.35820
C532        C  0.09288857  0.57397866  0.15755899    -0.06360
C533        C  0.11360022  0.59795328  0.18981528    -0.33330
C534        C  0.09991502  0.64037621  0.19881752     0.35720
H535        H  0.02051441  0.64921366  0.12268932     0.16090
O536        O  0.03606179  0.57039354  0.10408511    -0.60830
H537        H  0.14100843  0.58420295  0.20701207     0.16110
O538        O  0.12106332  0.66376514  0.22962904    -0.60920
H539        H  0.10555882  0.65777189  0.25704413     0.43110
H540        H  0.00536249  0.57111177  0.11287231     0.43060
C541        C  0.17317116  0.65938981  0.06011590    -0.06000
C542        C  0.13484430  0.63896508  0.04930104    -0.33430
C543        C  0.12738114  0.59652964  0.06111599     0.35820
C544        C  0.15573371  0.57535858  0.08977332    -0.06360
C545        C  0.19401739  0.59583726  0.10221198    -0.33330
C546        C  0.20349510  0.63736049  0.08649546     0.35720
H547        H  0.10989764  0.65620720  0.03175446     0.16090
O548        O  0.09259201  0.57534140  0.04432337    -0.60830
H549        H  0.21617258  0.57984343  0.12433617     0.16110
O550        O  0.24058381  0.65712674  0.09967290    -0.60920
H551        H  0.26297558  0.64795983  0.07854166     0.43110
H552        H  0.06938391  0.59685464  0.03808600     0.43060
C553        C  0.06724090  0.32741429  0.16920222    -0.06000
C554        C  0.04749791  0.35006513  0.13566041    -0.33430
C555        C  0.05865295  0.39214766  0.12662053     0.35820
C556        C  0.09128660  0.41214098  0.15091926    -0.06360
C557        C  0.11089018  0.38963995  0.18528072    -0.33330
C558        C  0.09884251  0.34728878  0.19475825     0.35720
H559        H  0.02302687  0.33493717  0.11591063     0.16090
O560        O  0.03884411  0.41263525  0.09259792    -0.60830
H561        H  0.13670544  0.40431887  0.20350883     0.16110
O562        O  0.12042045  0.32465959  0.22642309    -0.60920
H563        H  0.10509968  0.33189381  0.25368250     0.43110
H564        H  0.00807609  0.40408784  0.09279104     0.43060
C565        C  0.15498695  0.41252776  0.08278798    -0.06000
C566        C  0.19237520  0.39122003  0.09855037    -0.33430
C567        C  0.20350310  0.34914062  0.08473511     0.35820
C568        C  0.17663865  0.32776061  0.05522175    -0.06360
C569        C  0.14157127  0.35010298  0.03744314    -0.33330
C570        C  0.13012644  0.39137125  0.05088035     0.35720
H571        H  0.21200685  0.40661469  0.12289465     0.16090
O572        O  0.23884249  0.32851720  0.10222328    -0.60830
H573        H  0.12172235  0.33477449  0.01314970     0.16110
O574        O  0.09456917  0.41050770  0.03226088    -0.60920
H575        H  0.07320003  0.38794577  0.02526642     0.43110
H576        H  0.26291462  0.33468826  0.08201957     0.43060
C577        C  0.04481350  0.49417988  0.16478042    -0.06000
C578        C  0.01740656  0.48945943  0.12959184    -0.33430
C579        C  0.97304138  0.48892610  0.13403720     0.35820
C580        C  0.95359896  0.49671481  0.17435309    -0.06360
C581        C  0.98073060  0.50395248  0.21061140    -0.33330
C582        C  0.02646455  0.50264834  0.20580154     0.35720
H583        H  0.03075346  0.48771753  0.09727487     0.16090
O584        O  0.94829852  0.48181777  0.09822778    -0.60830
H585        H  0.96655178  0.51016130  0.24204612     0.16110
O586        O  0.05252639  0.50924673  0.24091129    -0.60920
H587        H  0.05373165  0.54100297  0.24414665     0.43110
H588        H  0.96040055  0.45637008  0.08310191     0.43060
C589        C  0.09331352  0.57381671  0.84265821    -0.06000
C590        C  0.11130884  0.59901400  0.80961498    -0.33430
C591        C  0.09805325  0.64208967  0.80384093     0.35820
C592        C  0.06817308  0.66088945  0.83289669    -0.06360
C593        C  0.05057971  0.63584296  0.86551128    -0.33330
C594        C  0.06044255  0.59213620  0.86871133     0.35720
H595        H  0.13668272  0.58569516  0.78931394     0.16090
O596        O  0.11614219  0.66603787  0.77131818    -0.60830
H597        H  0.02879700  0.65018623  0.88877640     0.15750
O598        O  0.04055850  0.56879461  0.90030073    -0.60920
H599        H  0.00917636  0.57354660  0.89604812     0.43110
H600        H  0.14158848  0.67988802  0.78462375     0.43060
C601        C  0.17449856  0.66118235  0.93070865    -0.06000
C602        C  0.13914379  0.63743624  0.94436146    -0.33430
C603        C  0.13519221  0.59390904  0.93397709     0.35820
C604        C  0.16298943  0.57509390  0.90306000    -0.06360
C605        C  0.19835897  0.59894717  0.88815928    -0.33330
C606        C  0.20518275  0.64125346  0.90314335     0.35720
H607        H  0.11409734  0.65287598  0.96314221     0.16090
O608        O  0.10400700  0.56954698  0.95364229    -0.60830
H609        H  0.22024045  0.58500965  0.86452808     0.16110
O610        O  0.23999556  0.66374908  0.88816039    -0.60920
H611        H  0.26400743  0.65604161  0.90809006     0.43110
H612        H  0.08038848  0.58909167  0.96341716     0.43060
C613        C  0.09264675  0.41279689  0.84819380    -0.06000
C614        C  0.07741113  0.38969982  0.88393850    -0.33430
C615        C  0.06159941  0.34810373  0.87901501     0.35820
C616        C  0.05902177  0.32941693  0.83733025    -0.06360
C617        C  0.07084949  0.35427226  0.80118994    -0.33330
C618        C  0.08745024  0.39585714  0.80637054     0.35720
H619        H  0.08056530  0.40287082  0.91619911     0.16090
O620        O  0.05022713  0.32559955  0.91549408    -0.60830
H621        H  0.06926578  0.34075815  0.76896607     0.16110
O622        O  0.10302891  0.41779359  0.77112823    -0.60920
H623        H  0.07840785  0.42071295  0.75077755     0.43110
H624        H  0.07788828  0.31618354  0.92889955     0.43060
C625        C  0.17726652  0.40929460  0.89276068    -0.06000
C626        C  0.17404103  0.37421772  0.86377068    -0.33430
C627        C  0.17257422  0.33151537  0.87907219     0.35820
C628        C  0.17959581  0.32299670  0.92319099    -0.06360
C629        C  0.19610697  0.35606321  0.94847271    -0.33330
C630        C  0.19622560  0.39865291  0.93337992     0.35720
H631        H  0.16871786  0.38008621  0.82968229     0.16090
O632        O  0.16571237  0.29858377  0.85044308    -0.60830
H633        H  0.21070138  0.34868337  0.97940913     0.16110
O634        O  0.22095355  0.42693047  0.95571303    -0.60920
H635        H  0.24980521  0.42549861  0.94175862     0.43110
H636        H  0.13734326  0.28640721  0.85838804     0.43060
C637        C  0.16781225  0.49411461  0.94884172    -0.06000
C638        C  0.12905805  0.48375710  0.96921426    -0.33430
C639        C  0.12352175  0.49077050  0.01303428     0.35820
C640        C  0.15977926  0.49757445  0.03911708    -0.06360
C641        C  0.19895480  0.50928277  0.01956946    -0.33330
C642        C  0.20219804  0.51021762  0.97400388     0.35720
H643        H  0.10167301  0.47389751  0.95041674     0.16090
O644        O  0.08268233  0.48989945  0.03087489    -0.60830
H645        H  0.22626105  0.51827400  0.03933466     0.16110
O646        O  0.23902909  0.52491614  0.95445437    -0.60920
H647        H  0.26209993  0.50370649  0.96190685     0.43110
H648        H  0.06316466  0.50628935  0.01115493     0.43060
C649        C  0.04697773  0.49154639  0.84340105    -0.06000
C650        C  0.02549899  0.48543376  0.88269161    -0.33430
C651        C  0.98123107  0.49117876  0.88575000     0.35820
C652        C  0.95622119  0.49495984  0.84815686    -0.06360
C653        C  0.97695887  0.49788589  0.80773848    -0.33330
C654        C  0.02261606  0.49784788  0.80537175     0.35720
H655        H  0.04348216  0.48094832  0.91222261     0.16090
O656        O  0.96244163  0.49353874  0.92595928    -0.60830
H657        H  0.95800675  0.50096495  0.77848424     0.16110
O658        O  0.04304433  0.50493023  0.76662242    -0.60920
H659        H  0.03217558  0.48267756  0.74655531     0.43110
H660        H  0.97300572  0.52052595  0.93913323     0.43060
C661        C  0.58574509  0.89728304  0.82438502    -0.06000
C662        C  0.62183734  0.86885590  0.82577373    -0.33430
C663        C  0.66410308  0.88458973  0.82711501     0.35820
C664        C  0.67122867  0.92822159  0.81864624    -0.06360
C665        C  0.63703315  0.95243621  0.80157440    -0.33330
C666        C  0.59431760  0.93754029  0.80410050     0.35720
H667        H  0.61725265  0.83460388  0.82869402     0.16090
O668        O  0.69798345  0.85708957  0.83615546    -0.60830
H669        H  0.64346571  0.98268119  0.78543984     0.16110
O670        O  0.56444557  0.95726365  0.77806225    -0.60920
H671        H  0.56748441  0.98878614  0.78252853     0.43110
H672        H  0.70814139  0.84651259  0.80762014     0.43060
C673        C  0.58560982  0.84534081  0.90547562    -0.06000
C674        C  0.60626829  0.80484932  0.90308639    -0.33430
C675        C  0.64845431  0.79896066  0.91863597     0.35820
C676        C  0.67050558  0.83393020  0.93721977    -0.06360
C677        C  0.64893230  0.87367694  0.94127650    -0.33330
C678        C  0.60659190  0.87914163  0.92680486     0.35720
H679        H  0.59068761  0.77859562  0.88642040     0.16090
O680        O  0.66851224  0.75967607  0.91313918    -0.60830
H681        H  0.66517837  0.90112511  0.95495711     0.16110
O682        O  0.58677892  0.91840082  0.93180251    -0.60920
H683        H  0.57663222  0.91869458  0.96226869     0.43110
H684        H  0.68250880  0.76128486  0.88429844     0.43060
C685        C  0.33651626  0.94211942  0.83746087    -0.06000
C686        C  0.35981232  0.92829347  0.80078025    -0.33430
C687        C  0.40181782  0.91099997  0.80458240     0.35820
C688        C  0.42132923  0.90769423  0.84561879    -0.06360
C689        C  0.39957640  0.92460600  0.88175300    -0.33330
C690        C  0.35719436  0.94042142  0.87826203     0.35720
H691        H  0.34464689  0.92860648  0.76919931     0.16090
O692        O  0.42155663  0.89248938  0.76925210    -0.60830
H693        H  0.41430608  0.92263003  0.91342252     0.16110
O694        O  0.33574977  0.95197561  0.91539151    -0.60920
H695        H  0.32536332  0.92456882  0.92804232     0.43110
H696        H  0.42053554  0.91442361  0.74583943     0.43060
C697        C  0.42170830  0.82380383  0.89277512    -0.06000
C698        C  0.38439080  0.82826563  0.86663013    -0.33430
C699        C  0.34282774  0.82909940  0.88503339     0.35820
C700        C  0.33754983  0.81928749  0.92912549    -0.06360
C701        C  0.37285674  0.80024442  0.95055852    -0.33330
C702        C  0.41440181  0.80049428  0.93167266     0.35720
H703        H  0.38741411  0.83410231  0.83234469     0.16090
O704        O  0.30768708  0.83759177  0.85918128    -0.60830
H705        H  0.36824224  0.78473880  0.98166005     0.16110
O706        O  0.44519673  0.77362176  0.94883786    -0.60920
H707        H  0.44535383  0.74770892  0.93012770     0.43110
H708        H  0.29692475  0.86644278  0.86804008     0.43060
C709        C  0.59105129  0.89634593  0.16405521    -0.06000
C710        C  0.62855658  0.87141269  0.15656833    -0.33430
C711        C  0.66923753  0.89044580  0.15715063     0.35820
C712        C  0.67288108  0.93328123  0.17077640    -0.06360
C713        C  0.63781501  0.95230191  0.19216645    -0.33330
C714        C  0.59764248  0.93211094  0.19156483     0.35720
H715        H  0.62664703  0.83760277  0.14994263     0.16090
O716        O  0.70505632  0.86687892  0.14516180    -0.60830
H717        H  0.64210874  0.98124385  0.21114074     0.16110
O718        O  0.56971561  0.94091309  0.22466210    -0.60920
H719        H  0.57561021  0.91849691  0.24692812     0.43110
H720        H  0.71553148  0.85288117  0.17214791     0.43060
C721        C  0.58301251  0.84821611  0.07964489    -0.06000
C722        C  0.60519275  0.88248558  0.06062395    -0.33430
C723        C  0.64858730  0.87783021  0.04895737     0.35820
C724        C  0.66972509  0.83728642  0.05292802    -0.06360
C725        C  0.64579839  0.80174747  0.06724094    -0.33330
C726        C  0.60284434  0.80698690  0.08131041     0.35720
H727        H  0.59034760  0.91426098  0.05935240     0.16090
O728        O  0.67053384  0.91385638  0.03617568    -0.60830
H729        H  0.66143343  0.77052810  0.07108060     0.16110
O730        O  0.58330581  0.77415865  0.10371636    -0.60920
H731        H  0.58675999  0.74784074  0.08582229     0.43110
H732        H  0.67840742  0.92875947  0.06335984     0.43060
C733        C  0.42947345  0.90914370  0.16748193    -0.06000
C734        C  0.41205131  0.94615478  0.14780905    -0.33430
C735        C  0.36788971  0.95262762  0.14689851     0.35820
C736        C  0.34147229  0.92914127  0.17462499    -0.06360
C737        C  0.35981094  0.89692996  0.20118783    -0.33330
C738        C  0.40350157  0.88533843  0.19601021     0.35720
H739        H  0.43071498  0.96512953  0.12562190     0.16090
O740        O  0.35077444  0.97884237  0.11548427    -0.60830
H741        H  0.33965377  0.87852731  0.22295568     0.16110
O742        O  0.42003176  0.84990288  0.21719394    -0.60920
H743        H  0.41189043  0.82488507  0.19919109     0.43110
H744        H  0.34182549  0.95961349  0.09170154     0.43060
C745        C  0.33743637  0.82965337  0.06665250    -0.06000
C746        C  0.35352960  0.87155799  0.06301188    -0.33430
C747        C  0.39482777  0.88167099  0.07731535     0.35820
C748        C  0.42055206  0.84984604  0.09779608    -0.06360
C749        C  0.40435730  0.80799398  0.10280219    -0.33330
C750        C  0.36295827  0.79771192  0.08732165     0.35720
H751        H  0.33512244  0.89643075  0.04628562     0.16090
O752        O  0.41316234  0.92011987  0.06485800    -0.60830
H753        H  0.42394511  0.78332879  0.11846801     0.16110
O754        O  0.34787973  0.75669331  0.09275622    -0.60920
H755        H  0.33238389  0.75716654  0.12085775     0.43110
H756        H  0.40074302  0.92928795  0.03665820     0.43060
C757        C  0.49725008  0.83671714  0.03999540    -0.06000
C758        C  0.52104246  0.80308440  0.02004412    -0.33430
C759        C  0.52435135  0.80122896  0.97427524     0.35820
C760        C  0.50650272  0.83556748  0.94917936    -0.06360
C761        C  0.48758967  0.87001014  0.97116668    -0.33330
C762        C  0.47111773  0.86156749  0.01186336     0.35720
H763        H  0.53516413  0.77762635  0.03924735     0.16090
O764        O  0.54076668  0.76488810  0.95471575    -0.60830
H765        H  0.47188051  0.89515130  0.95256782     0.16110
O766        O  0.42899375  0.84885360  0.00922069    -0.60920
H767        H  0.41245685  0.87123802  0.99283179     0.43110
H768        H  0.56866952  0.75829824  0.96927248     0.43060
C769        C  0.57826292  0.08494449  0.83650970    -0.06000
C770        C  0.59551938  0.05018922  0.86050457    -0.33430
C771        C  0.63876064  0.03750414  0.85643776     0.35820
C772        C  0.66536161  0.05693028  0.82520585    -0.06360
C773        C  0.64735926  0.08920153  0.79833082    -0.33330
C774        C  0.60448254  0.10392858  0.80457344     0.35720
H775        H  0.57705069  0.03527625  0.88587781     0.16090
O776        O  0.65432062  0.00490380  0.88245068    -0.60830
H777        H  0.66722646  0.10464103  0.77408765     0.16110
O778        O  0.58892272  0.13777968  0.78029125    -0.60920
H779        H  0.59753621  0.16403349  0.79616912     0.43110
H780        H  0.66388366  0.01901133  0.90939790     0.43060
C781        C  0.58215621  0.14772766  0.90472977    -0.06000
C782        C  0.60228057  0.11620656  0.93009804    -0.33430
C783        C  0.64505502  0.12034690  0.94302880     0.35820
C784        C  0.66613268  0.16000650  0.93678017    -0.06360
C785        C  0.64419443  0.19360160  0.91476782    -0.33330
C786        C  0.60275350  0.18716630  0.89774152     0.35720
H787        H  0.58573720  0.08659017  0.93708737     0.16090
O788        O  0.66736547  0.08449153  0.95775972    -0.60830
H789        H  0.65991099  0.22406962  0.90889682     0.16110
O790        O  0.58335682  0.21878927  0.87317174    -0.60920
H791        H  0.56862085  0.23804226  0.89420859     0.43110
H792        H  0.64675111  0.06574533  0.97340028     0.43060
C793        C  0.32369814  0.08409630  0.83021963    -0.06000
C794        C  0.34537847  0.11248024  0.80223353    -0.33430
C795        C  0.39007733  0.12024606  0.80746829     0.35820
C796        C  0.41397999  0.09835738  0.83986742    -0.06360
C797        C  0.39287853  0.06799573  0.86551542    -0.33330
C798        C  0.34832520  0.06261778  0.86265451     0.35720
H799        H  0.32770914  0.12900313  0.77674581     0.16090
O800        O  0.41020521  0.14915248  0.78080876    -0.60830
H801        H  0.41046179  0.05109184  0.89082298     0.16110
O802        O  0.32896692  0.03768683  0.89358382    -0.60920
H803        H  0.31409385  0.05830914  0.91320098     0.43110
H804        H  0.40128852  0.17800154  0.79152633     0.43060
C805        C  0.42169767  0.15077298  0.91471918    -0.06000
C806        C  0.40723910  0.12177662  0.94638422    -0.33430
C807        C  0.36575549  0.12541592  0.96346808     0.35820
C808        C  0.33800211  0.15834790  0.94859084    -0.06360
C809        C  0.35334596  0.18889521  0.91869566    -0.33330
C810        C  0.39504119  0.18528072  0.90186934     0.35720
H811        H  0.42678337  0.09429765  0.95577216     0.16090
O812        O  0.35292801  0.09723605  0.99516834    -0.60830
H813        H  0.33246287  0.21472943  0.90707544     0.16110
O814        O  0.40841202  0.21383113  0.87081864    -0.60920
H815        H  0.42653741  0.23483205  0.88642609     0.43110
H816        H  0.35053324  0.06879955  0.98089514     0.43060
C817        C  0.49228751  0.04294248  0.83650069    -0.06000
C818        C  0.49776128  0.01991478  0.87496318    -0.33430
C819        C  0.50242917  0.97531682  0.87523223     0.35820
C820        C  0.49832684  0.95229291  0.83646780    -0.06360
C821        C  0.48392251  0.97485410  0.79914282    -0.33330
C822        C  0.48257683  0.02033672  0.79857121     0.35720
H823        H  0.50089169  0.03704391  0.90495102     0.16090
O824        O  0.50793880  0.95385244  0.91382605    -0.60830
H825        H  0.47765802  0.95749632  0.76959804     0.16110
O826        O  0.47315347  0.04205146  0.76100781    -0.60920
H827        H  0.44114237  0.04375289  0.75996841     0.43110
H828        H  0.52551154  0.97235747  0.93294416     0.43060
C829        C  0.66884863  0.06584299  0.17061026    -0.06000
C830        C  0.64517569  0.04704014  0.13740031    -0.33430
C831        C  0.60346622  0.06127907  0.12744900     0.35820
C832        C  0.58430047  0.09527326  0.15150067    -0.06360
C833        C  0.60717022  0.11247852  0.18658778    -0.33330
C834        C  0.64919677  0.09785578  0.19639727     0.35720
H835        H  0.66009853  0.02254805  0.11714799     0.16090
O836        O  0.58444635  0.04595870  0.09056293    -0.60830
H837        H  0.59311151  0.13870768  0.20514286     0.16110
O838        O  0.67194792  0.11762601  0.22862184    -0.60920
H839        H  0.66512110  0.10121042  0.25529455     0.43110
H840        H  0.58942778  0.01428032  0.09013972     0.43060
C841        C  0.58600216  0.16795359  0.09227898    -0.06000
C842        C  0.60601319  0.13870225  0.06425288    -0.33430
C843        C  0.64999799  0.14085312  0.05523077     0.35820
C844        C  0.67387575  0.17803671  0.06519692    -0.06360
C845        C  0.65231496  0.21096920  0.08861536    -0.33330
C846        C  0.60915624  0.20532002  0.10352611     0.35720
H847        H  0.58829335  0.11151373  0.05238588     0.16090
O848        O  0.66977747  0.10481891  0.03881358    -0.60830
H849        H  0.66957470  0.23975170  0.09753194     0.16110
O850        O  0.59060348  0.23566193  0.13001017    -0.60920
H851        H  0.57478880  0.25558874  0.11028405     0.43110
H852        H  0.67901219  0.08760470  0.06433727     0.43060
C853        C  0.42233620  0.09588103  0.14788533    -0.06000
C854        C  0.39661087  0.08378898  0.11299899    -0.33430
C855        C  0.35533191  0.06796343  0.11969845     0.35820
C856        C  0.34062115  0.05872335  0.16216451    -0.06360
C857        C  0.36667092  0.07043177  0.19730493    -0.33330
C858        C  0.40701954  0.08988898  0.19043622     0.35720
H859        H  0.40778084  0.08892236  0.08014202     0.16090
O860        O  0.32995333  0.06098601  0.08410743    -0.60830
H861        H  0.35532255  0.06553911  0.23009311     0.16110
O862        O  0.42970775  0.10625517  0.22477848    -0.60920
H863        H  0.42819525  0.08464412  0.24844782     0.43110
H864        H  0.31618890  0.08933534  0.07777096     0.43060
C865        C  0.41863947  0.17930467  0.10574361    -0.06000
C866        C  0.39036125  0.18593011  0.14159040    -0.33430
C867        C  0.34485931  0.19037446  0.13646497     0.35820
C868        C  0.32664096  0.19194354  0.09477003    -0.06360
C869        C  0.35514106  0.19223233  0.05962970    -0.33330
C870        C  0.39971942  0.18487330  0.06418802     0.35720
H871        H  0.40314003  0.18298227  0.17409887     0.16090
O872        O  0.31869630  0.18999337  0.17225556    -0.60830
H873        H  0.34227683  0.19548608  0.02733196     0.16110
O874        O  0.42252544  0.17855211  0.02700025    -0.60920
H875        H  0.42085370  0.20632033  0.01099194     0.43110
H876        H  0.31262866  0.15911742  0.17769356     0.43060
C877        C  0.50254689  0.04784136  0.15160400    -0.06000
C878        C  0.50390701  0.02268913  0.11403994    -0.33430
C879        C  0.51103259  0.97818481  0.11616660     0.35820
C880        C  0.50944796  0.95670412  0.15630947    -0.06360
C881        C  0.50023684  0.98140673  0.19357889    -0.33330
C882        C  0.50111804  0.02673510  0.19190996     0.35720
H883        H  0.50281122  0.03782692  0.08258109     0.16090
O884        O  0.51732434  0.95554856  0.07854856    -0.60830
H885        H  0.49467632  0.96555980  0.22432091     0.16110
O886        O  0.50073068  0.04977989  0.22960124    -0.60920
H887        H  0.53157099  0.05503381  0.23622968     0.43110
H888        H  0.48891988  0.95554467  0.06376656     0.43060
C889        C  0.50498363  0.16886994  0.04615181    -0.06000
C890        C  0.50259435  0.12791469  0.02770851    -0.33430
C891        C  0.50475257  0.12210232  0.98338939     0.35820
C892        C  0.50556379  0.15797580  0.95552569    -0.06360
C893        C  0.50980533  0.19945939  0.97344210    -0.33330
C894        C  0.51070797  0.20492539  0.01889552     0.35720
H895        H  0.49935879  0.09991956  0.04813321     0.16090
O896        O  0.50368467  0.08100137  0.96729959    -0.60830
H897        H  0.51195872  0.22730113  0.95239417     0.16110
O898        O  0.51559630  0.24521264  0.03610827    -0.60920
H899        H  0.48581489  0.25586555  0.04192424     0.43110
H900        H  0.52821999  0.06506219  0.98080894     0.43060
C901        C  0.90851564  0.84081978  0.57857745    -0.06000
C902        C  0.93935357  0.86760534  0.59733921    -0.33430
C903        C  0.95432590  0.86055389  0.63902606     0.35820
C904        C  0.94027887  0.82453550  0.66271356    -0.06360
C905        C  0.90997196  0.79671127  0.64396674    -0.33330
C906        C  0.89340895  0.80522523  0.60227830     0.35720
H907        H  0.95377169  0.89287418  0.57829941     0.16090
O908        O  0.98454740  0.88808303  0.65549425    -0.60830
H909        H  0.89808475  0.76939931  0.66213712     0.16110
O910        O  0.86305938  0.77856333  0.58488884    -0.60920
H911        H  0.83480111  0.79193724  0.59252753     0.43110
H912        H  0.96817958  0.91453467  0.66366483     0.43060
C913        C  0.84969364  0.90960251  0.57373393    -0.06000
C914        C  0.81365450  0.89513749  0.59705695    -0.33430
C915        C  0.80601951  0.90932268  0.63961495     0.35820
C916        C  0.83616152  0.93626910  0.66007089    -0.06360
C917        C  0.87175458  0.95020463  0.63662014    -0.33330
C918        C  0.87712487  0.94005829  0.59299960     0.35720
H919        H  0.79225928  0.87180495  0.58271327     0.16090
O920        O  0.77068255  0.89450243  0.66164070    -0.60830
H921        H  0.89646953  0.96797263  0.65275273     0.16110
O922        O  0.91079707  0.95751861  0.56994301    -0.60920
H923        H  0.93453273  0.96444135  0.59025485     0.43110
H924        H  0.78067835  0.86757292  0.67608311     0.43060
C925        C  0.83861395  0.94436134  0.33143712    -0.06000
C926        C  0.88082500  0.94435497  0.34799733    -0.33430
C927        C  0.88990286  0.92715560  0.38883054     0.35820
C928        C  0.85625957  0.90979909  0.41373452    -0.06360
C929        C  0.81329105  0.91543470  0.39993832    -0.33330
C930        C  0.80432469  0.93194388  0.35868482     0.35720
H931        H  0.90744913  0.95572155  0.32845472     0.16090
O932        O  0.93147833  0.92726985  0.40431369    -0.60830
H933        H  0.78701264  0.90392139  0.41988077     0.16110
O934        O  0.76230223  0.93353835  0.34466839    -0.60920
H935        H  0.75187429  0.96305050  0.35173597     0.43110
H936        H  0.95032614  0.91715237  0.38034112     0.43060
C937        C  0.89594561  0.81841689  0.41226760    -0.06000
C938        C  0.87387662  0.83021650  0.37410381    -0.33430
C939        C  0.89488687  0.82890493  0.33405299     0.35820
C940        C  0.93468231  0.80711459  0.33015430    -0.06360
C941        C  0.94664977  0.77945133  0.36465196    -0.33330
C942        C  0.92599340  0.78390115  0.40590352     0.35720
H943        H  0.84143626  0.84288521  0.37512796     0.16090
O944        O  0.87620153  0.84907995  0.29909969    -0.60830
H945        H  0.97322273  0.75677028  0.36057064     0.16110
O946        O  0.93509641  0.75564575  0.43923622    -0.60920
H947        H  0.96540121  0.74543845  0.43569034     0.43110
H948        H  0.85577183  0.82787463  0.28706045     0.43060
C949        C  0.91454374  0.16004668  0.57667647    -0.06000
C950        C  0.89309078  0.18978246  0.60374774    -0.33430
C951        C  0.90595116  0.19496676  0.64718483     0.35820
C952        C  0.93890391  0.16832631  0.66466429    -0.06360
C953        C  0.95905279  0.13830544  0.63777233    -0.33330
C954        C  0.94914349  0.13551897  0.59375228     0.35720
H955        H  0.86562142  0.20805001  0.59150973     0.16090
O956        O  0.88358550  0.22322604  0.67313547    -0.60830
H957        H  0.98118957  0.11536665  0.65160131     0.16110
O958        O  0.97141381  0.10697812  0.56776276    -0.60920
H959        H  0.97852539  0.08102778  0.58532064     0.43110
H960        H  0.89777861  0.25139182  0.66883088     0.43060
C961        C  0.85334719  0.09172341  0.57519811    -0.06000
C962        C  0.88377778  0.06524364  0.59593671    -0.33430
C963        C  0.87964573  0.05495537  0.63963183     0.35820
C964        C  0.83987816  0.06187663  0.66111925    -0.06360
C965        C  0.80653052  0.08357536  0.63834680    -0.33330
C966        C  0.81369119  0.09985279  0.59621138     0.35720
H967        H  0.91263790  0.05540116  0.57906505     0.16090
O968        O  0.91539219  0.03926533  0.66101808    -0.60830
H969        H  0.77576457  0.08989243  0.65395618     0.16110
O970        O  0.78226217  0.12431549  0.57633107    -0.60920
H971        H  0.76432728  0.10342000  0.56035967     0.43110
H972        H  0.92739529  0.06422690  0.67665973     0.43060
C973        C  0.93089705  0.18974566  0.32577747    -0.06000
C974        C  0.94816683  0.21344330  0.36021160    -0.33430
C975        C  0.93343600  0.20629927  0.40301468     0.35820
C976        C  0.90035937  0.17600244  0.41084233    -0.06360
C977        C  0.87376573  0.16825295  0.37453678    -0.33330
C978        C  0.89039295  0.17118288  0.33245819     0.35720
H979        H  0.97392627  0.23600008  0.35426570     0.16090
O980        O  0.94903934  0.23143259  0.43557315    -0.60830
H981        H  0.84125189  0.15687413  0.37854468     0.16110
O982        O  0.86614148  0.15735265  0.29816997    -0.60920
H983        H  0.87942277  0.12959025  0.28919915     0.43110
H984        H  0.92702015  0.25457271  0.43963613     0.43060
C985        C  0.84966896  0.05350981  0.32934480    -0.06000
C986        C  0.81435204  0.06317421  0.35658368    -0.33430
C987        C  0.82049923  0.07898564  0.39850399     0.35820
C988        C  0.86256792  0.08677349  0.41356247    -0.06360
C989        C  0.89798268  0.07331209  0.38810886    -0.33330
C990        C  0.89180555  0.05674602  0.34635202     0.35720
H991        H  0.78155178  0.05999363  0.34490231     0.16090
O992        O  0.78529122  0.09170649  0.42252236    -0.60830
H993        H  0.93058654  0.07792646  0.39956937     0.16110
O994        O  0.92722242  0.04563411  0.32194095    -0.60920
H995        H  0.93711680  0.07295149  0.30877099     0.43110
H996        H  0.76942037  0.06489675  0.42910061     0.43060
C997        C  0.85173899  0.95456747  0.49189131    -0.06000
C998        C  0.89056692  0.97600203  0.48502121    -0.33430
C999        C  0.89246848  0.02035298  0.48756116     0.35820
C1000       C  0.85461853  0.04476223  0.49460668    -0.06360
C1001       C  0.81513550  0.02375336  0.50105671    -0.33330
C1002       C  0.81361860  0.97841732  0.50003373     0.35720
H1003       H  0.92033498  0.95784527  0.48028436     0.16090
O1004       O  0.93172490  0.03981506  0.48296498    -0.60830
H1005       H  0.78586905  0.04235854  0.50679384     0.16110
O1006       O  0.77513845  0.95784984  0.50613874    -0.60920
H1007       H  0.76989221  0.95877419  0.53777701     0.43110
H1008       H  0.94657398  0.03587245  0.51114774     0.43060
C1009       C  0.17204782  0.08636410  0.58383810    -0.06000
C1010       C  0.14886304  0.05174042  0.60048839    -0.33430
C1011       C  0.15002682  0.04183389  0.64422590     0.35820
C1012       C  0.18164759  0.05936479  0.67136711    -0.06360
C1013       C  0.20961962  0.09031487  0.65363328    -0.33330
C1014       C  0.20370294  0.10512120  0.61054377     0.35720
H1015       H  0.12520969  0.03561041  0.58121700     0.16090
O1016       O  0.11769603  0.01707619  0.66064816    -0.60830
H1017       H  0.23372579  0.10517343  0.67391124     0.16110
O1018       O  0.22768004  0.13885500  0.59551694    -0.60920
H1019       H  0.25137729  0.12534270  0.57849003     0.43110
H1020       H  0.09310293  0.03708241  0.66597817     0.43060
C1021       C  0.10104658  0.14788964  0.58337324    -0.06000
C1022       C  0.10884386  0.18724302  0.60412911    -0.33430
C1023       C  0.09153090  0.19550627  0.64541256     0.35820
C1024       C  0.06828962  0.16307570  0.66710221    -0.06360
C1025       C  0.06230710  0.12355668  0.64635159    -0.33330
C1026       C  0.07468036  0.11735240  0.60375092     0.35720
H1027       H  0.12864249  0.21126601  0.58848463     0.16090
O1028       O  0.09923342  0.23432374  0.66484141    -0.60830
H1029       H  0.04704572  0.09711323  0.66304698     0.16110
O1030       O  0.06328790  0.07964330  0.58389214    -0.60920
H1031       H  0.05055299  0.08756196  0.55565350     0.43110
H1032       H  0.12670070  0.23005866  0.68091876     0.43060
C1033       C  0.11631744  0.16737200  0.42077217    -0.06000
C1034       C  0.14467708  0.16665926  0.38481647    -0.33430
C1035       C  0.12798300  0.16748040  0.34243645     0.35820
C1036       C  0.08291347  0.16970967  0.33637821    -0.06360
C1037       C  0.05717334  0.18022374  0.37154284    -0.33330
C1038       C  0.07513328  0.18505742  0.41260697     0.35720
H1039       H  0.17903146  0.16172310  0.38939704     0.16090
O1040       O  0.15560506  0.16565347  0.30774503    -0.60830
H1041       H  0.02403209  0.18807617  0.36639529     0.16110
O1042       O  0.05902972  0.21675847  0.43918662    -0.60920
H1043       H  0.02725231  0.21727447  0.43571650     0.43110
H1044       H  0.15506079  0.13537646  0.29770640     0.43060
C1045       C  0.17703809  0.05288334  0.33563491    -0.06000
C1046       C  0.21308705  0.06158208  0.36191661    -0.33430
C1047       C  0.20749880  0.07785692  0.40414597     0.35820
C1048       C  0.16552019  0.08403196  0.42104083    -0.06360
C1049       C  0.13027193  0.07188457  0.39593238    -0.33330
C1050       C  0.13531444  0.05902982  0.35338706     0.35720
H1051       H  0.24549106  0.05755362  0.34918038     0.16090
O1052       O  0.24296178  0.08970209  0.42760716    -0.60830
H1053       H  0.09803460  0.07667823  0.40762467     0.16110
O1054       O  0.09855897  0.05400669  0.32925454    -0.60920
H1055       H  0.09590060  0.08073110  0.31199018     0.43110
H1056       H  0.24707176  0.12065499  0.42086927     0.43060
C1057       C  0.05469738  0.15574867  0.50100672    -0.06000
C1058       C  0.03260757  0.19066596  0.52077662    -0.33430
C1059       C  0.98709386  0.19552189  0.51711147     0.35820
C1060       C  0.96287752  0.16511177  0.49350081    -0.06360
C1061       C  0.98517766  0.13053383  0.47455552    -0.33330
C1062       C  0.02985207  0.12480646  0.47917771     0.35720
H1063       H  0.05075184  0.21497927  0.53769016     0.16090
O1064       O  0.96672904  0.23067955  0.53518683    -0.60830
H1065       H  0.96734543  0.10604425  0.45790969     0.16110
O1066       O  0.04875929  0.08691467  0.46567705    -0.60920
H1067       H  0.03364841  0.07791727  0.43892132     0.43110
H1068       H  0.97365152  0.22956403  0.56651568     0.43060
C1069       C  0.07875430  0.80871610  0.66557911    -0.06000
C1070       C  0.06305076  0.78377155  0.63098198    -0.33430
C1071       C  0.08462762  0.78409367  0.59038566     0.35820
C1072       C  0.11836564  0.81396537  0.58328629    -0.06360
C1073       C  0.14215630  0.82225836  0.62131936    -0.33330
C1074       C  0.12167364  0.82265874  0.66194617     0.35720
H1075       H  0.03375839  0.76540354  0.63486047     0.16090
O1076       O  0.07153526  0.75667452  0.55840775    -0.60830
H1077       H  0.17555503  0.83156104  0.61953208     0.16110
O1078       O  0.14475771  0.83419283  0.69790070    -0.60920
H1079       H  0.13234618  0.86216273  0.70734907     0.43110
H1080       H  0.09428203  0.73392944  0.55700170     0.43060
C1081       C  0.15997364  0.90172280  0.58183315    -0.06000
C1082       C  0.12360834  0.91601549  0.60432184    -0.33430
C1083       C  0.12720853  0.92940641  0.64674571     0.35820
C1084       C  0.16866052  0.93431905  0.66551886    -0.06360
C1085       C  0.20562625  0.92477132  0.64077375    -0.33330
C1086       C  0.20148273  0.90819785  0.59894869     0.35720
H1087       H  0.09186954  0.91335710  0.59025777     0.16090
O1088       O  0.08979443  0.93722425  0.66958119    -0.60830
H1089       H  0.23761842  0.92825103  0.65443224     0.16110
O1090       O  0.23749826  0.89439338  0.57677950    -0.60920
H1091       H  0.25509763  0.92047908  0.57203078     0.43110
H1092       H  0.07570479  0.90890510  0.67290168     0.43060
C1093       C  0.07461181  0.82886010  0.33383501    -0.06000
C1094       C  0.10372904  0.79856289  0.35167560    -0.33430
C1095       C  0.12062913  0.80468475  0.39327518     0.35820
C1096       C  0.10715922  0.84066731  0.41747505    -0.06360
C1097       C  0.07664465  0.86974573  0.40006844    -0.33330
C1098       C  0.06112736  0.86463175  0.35836955     0.35720
H1099       H  0.11412701  0.77078504  0.33303932     0.16090
O1100       O  0.14840185  0.77463056  0.41096805    -0.60830
H1101       H  0.06408201  0.89602540  0.41956003     0.16110
O1102       O  0.03013338  0.89294154  0.34323103    -0.60920
H1103       H  0.04599163  0.91491952  0.32645544     0.43110
H1104       H  0.17433985  0.77440469  0.39213005     0.43060
C1105       C  0.16929946  0.90435215  0.42293741    -0.06000
C1106       C  0.14174592  0.93646428  0.40618986    -0.33430
C1107       C  0.14255059  0.94707811  0.36230078     0.35820
C1108       C  0.17616681  0.93125781  0.33617540    -0.06360
C1109       C  0.20761363  0.90345475  0.35439400    -0.33330
C1110       C  0.20335903  0.88871409  0.39718866     0.35720
H1111       H  0.11546254  0.94886409  0.42549532     0.16090
O1112       O  0.10984802  0.97166895  0.34441494    -0.60830
H1113       H  0.23390384  0.89103521  0.33470082     0.16110
O1114       O  0.23195692  0.85864114  0.41340326    -0.60920
H1115       H  0.22513471  0.83137217  0.39841848     0.43110
H1116       H  0.08328271  0.96763971  0.36184957     0.43060
C1117       C  0.16779260  0.94802676  0.50441441    -0.06000
C1118       C  0.20767230  0.96914746  0.50211922    -0.33430
C1119       C  0.20905136  0.01451361  0.50218579     0.35820
C1120       C  0.17022295  0.03862410  0.50165641    -0.06360
C1121       C  0.13071490  0.01710625  0.50224673    -0.33330
C1122       C  0.12923594  0.97246802  0.50553558     0.35720
H1123       H  0.23746273  0.95053939  0.50073155     0.16090
O1124       O  0.24811949  0.03478267  0.50249460    -0.60830
H1125       H  0.10069619  0.03533274  0.50281050     0.16110
O1126       O  0.09000195  0.95253791  0.51015682    -0.60920
H1127       H  0.07211630  0.96151165  0.48499584     0.43110
H1128       H  0.25389922  0.04102879  0.53339248     0.43060
C1129       C  0.96149292  0.82442573  0.49512418    -0.06000
C1130       C  0.98538506  0.81722040  0.53341322    -0.33430
C1131       C  0.02810182  0.83199194  0.53512101     0.35820
C1132       C  0.05509139  0.82378022  0.49936098    -0.06360
C1133       C  0.03166595  0.81342889  0.46157732    -0.33330
C1134       C  0.98845095  0.82808799  0.45837615     0.35720
H1135       H  0.97257089  0.80274471  0.56207491     0.16090
O1136       O  0.04008687  0.86055040  0.56658490    -0.60830
H1137       H  0.04581382  0.79911700  0.43338033     0.16110
O1138       O  0.97677468  0.85414269  0.42437414    -0.60920
H1139       H  0.99018147  0.84184736  0.39809441     0.43110
H1140       H  0.02723443  0.85078121  0.59407603     0.43060
loop_ 
_geom_bond_atom_site_label_1 
_geom_bond_atom_site_label_2 
_geom_bond_distance 
_geom_bond_site_symmetry_2 
_ccdc_geom_bond_type 
C1            C2   1.444       .  A
C1            C6   1.416       .  A
C1         C1096   1.478       .  S
C2            C3   1.453       .  A
C2         C1132   1.538       .  S
C3            C4   1.449       .  A
C3         C1072   1.564       .  S
C4            C5   1.410       .  A
C4         C1081   1.472       .  S
C5            C6   1.389       .  A
C5         C1117   1.491       .  S
C6         C1105   1.496       .  S
C7            C8   1.415       .  A
C7           C12   1.426       .  A
C7         C1009   1.508       .  S
C8            C9   1.419       .  A
C8         C1120   1.486       .  S
C9           C10   1.440       .  A
C9         C1048   1.500       .  S
C10          C11   1.436       .  A
C10        C1033   1.530       .  S
C11          C12   1.420       .  A
C11        C1057   1.516       .  S
C12        C1021   1.483       .  S
C13          C14   1.435       .  A
C13          C18   1.426       .  A
C13         C949   1.498       .  S
C14          C15   1.444       .  A
C14        C1060   1.509       .  S
C15          C16   1.439       .  A
C15         C976   1.544       .  S
C16          C17   1.417       .  A
C16         C988   1.504       .  S
C17          C18   1.407       .  A
C17        C1000   1.482       .  S
C18         C961   1.505       .  S
C19          C20   1.452       .  A
C19          C24   1.418       .  A
C19         C901   1.490       .  S
C20          C21   1.455       .  A
C20        C1129   1.545       .  S
C21          C22   1.449       .  A
C21         C937   1.561       .  S
C22          C23   1.412       .  A
C22         C928   1.489       .  S
C23          C24   1.394       .  A
C23         C997   1.483       .  S
C24         C913   1.503       .  S
C25          C26   1.433       .  A
C25          C30   1.431       .  A
C25         C841   1.519       .  S
C26          C27   1.447       .  A
C26         C889   1.483       .  S
C27          C28   1.432       .  A
C27         C865   1.545       .  S
C28          C29   1.415       .  A
C28         C853   1.490       .  S
C29          C30   1.417       .  A
C29         C877   1.498       .  S
C30         C832   1.498       .  S
C31          C32   1.407       .  A
C31          C36   1.425       .  A
C31         C781   1.481       .  S
C32          C33   1.412       .  A
C32         C892   1.496       .  S
C33          C34   1.421       .  A
C33         C805   1.477       .  S
C34          C35   1.416       .  A
C34         C796   1.504       .  S
C35          C36   1.428       .  A
C35         C817   1.483       .  S
C36         C769   1.506       .  S
C37          C38   1.421       .  A
C37          C42   1.453       .  A
C37         C709   1.536       .  S
C38          C39   1.405       .  A
C38         C880   1.502       .  S
C39          C40   1.425       .  A
C39         C733   1.487       .  S
C40          C41   1.426       .  A
C40         C748   1.491       .  S
C41          C42   1.435       .  A
C41         C757   1.530       .  S
C42         C721   1.489       .  S
C43          C44   1.435       .  A
C43          C48   1.442       .  A
C43         C661   1.550       .  S
C44          C45   1.426       .  A
C44         C820   1.497       .  S
C45          C46   1.441       .  A
C45         C688   1.501       .  S
C46          C47   1.442       .  A
C46         C697   1.555       .  S
C47          C48   1.423       .  A
C47         C760   1.497       .  S
C48         C673   1.498       .  S
C49          C50   1.440       .  A
C49          C54   1.439       .  A
C49         C625   1.545       .  S
C50          C51   1.415       .  A
C50         C613   1.492       .  S
C51          C52   1.411       .  A
C51         C649   1.489       .  S
C52          C53   1.422       .  A
C52         C589   1.495       .  S
C53          C54   1.426       .  A
C53         C604   1.505       .  S
C54         C637   1.482       .  S
C55          C56   1.418       .  A
C55          C60   1.418       .  A
C55         C565   1.512       .  S
C56          C57   1.414       .  A
C56         C640   1.479       .  S
C57          C58   1.423       .  A
C57         C544   1.492       .  S
C58          C59   1.416       .  A
C58         C532   1.486       .  S
C59          C60   1.421       .  A
C59         C577   1.495       .  S
C60         C556   1.479       .  S
C61          C62   1.451       .  A
C61          C66   1.449       .  A
C61         C496   1.563       .  S
C62          C63   1.445       .  A
C62         C580   1.493       .  S
C63          C64   1.430       .  A
C63         C472   1.530       .  S
C64          C65   1.428       .  A
C64         C481   1.523       .  S
C65          C66   1.442       .  A
C65         C520   1.510       .  S
C66         C505   1.509       .  S
C67          C68   1.409       .  A
C67          C72   1.416       .  A
C67         C445   1.506       .  S
C68          C69   1.420       .  A
C68         C652   1.485       .  S
C69          C70   1.446       .  A
C69         C421   1.496       .  S
C70          C71   1.440       .  A
C70         C436   1.546       .  S
C71          C72   1.423       .  A
C71         C517   1.491       .  S
C72         C460   1.487       .  S
O73          C81   1.278       .  A
O73         Co93   1.990       .  S
O74          C82   1.279       .  A
O74         Co94   1.914   1_545  S
O75          C83   1.271       .  A
O75         Co95   1.992       .  S
O76          C84   1.276       .  A
O76         Co96   2.010       .  S
O77          C83   1.279       .  A
O77         Co94   2.005       .  S
O78          C84   1.272       .  A
O78         Co93   1.994   1_545  S
O79          C82   1.292       .  A
O79         Co96   2.109       .  S
O80          C81   1.277       .  A
O80         Co95   2.010       .  S
C81         C342   1.471       .  S
C82         C258   1.473       .  S
C83         C170   1.479       .  S
C84         C110   1.477       .  S
O85          C98   1.279       .  A
O85         Co93   2.023   1_545  S
O86          C99   1.278       .  A
O86         Co94   2.017       .  S
O87         C100   1.268       .  A
O87         Co95   1.975       .  S
O88         C101   1.277       .  A
O88         Co96   1.931       .  S
O89         C101   1.290       .  A
O89         Co94   2.107   1_545  S
O90         C100   1.267       .  A
O90         Co93   1.985       .  S
O91          C98   1.275       .  A
O91         Co96   1.991       .  S
O92          C99   1.273       .  A
O92         Co95   1.986       .  S
Co93         O97   2.013       .  S
Co94         O97   1.972       .  S
Co95         O97   2.016       .  S
Co96         O97   1.991   1_545  S
C98        C1012   1.492       .  S
C99         C685   1.490       .  S
C100       C1084   1.472       .  S
C101        C793   1.501       .  S
O102        C110   1.268       .  A
O102       Co122   1.984       .  S
O103        C111   1.265       .  A
O103       Co123   1.983   1_655  S
O104        C112   1.268       .  A
O104       Co124   2.002       .  S
O105        C113   1.271       .  A
O105       Co125   2.011       .  S
O106        C112   1.269       .  A
O106       Co123   1.984       .  S
O107        C113   1.263       .  A
O107       Co122   1.983   1_655  S
O108        C111   1.272       .  A
O108       Co125   2.007       .  S
O109        C110   1.274       .  A
O109       Co124   2.025       .  S
C111        C314   1.475       .  S
C112        C256   1.468       .  S
C113        C371   1.475       .  S
O114        C127   1.278       .  A
O114       Co122   2.046   1_655  S
O115        C128   1.269       .  A
O115       Co123   2.014       .  S
O116        C129   1.263       .  A
O116       Co124   1.968       .  S
O117        C130   1.261       .  A
O117       Co125   1.963       .  S
O118        C130   1.275       .  A
O118       Co123   2.031   1_655  S
O119        C129   1.271       .  A
O119       Co122   2.013       .  S
O120        C127   1.260       .  A
O120       Co125   1.960       .  S
O121        C128   1.267       .  A
O121       Co124   1.977       .  S
Co122       O126   2.106       .  S
Co123       O126   2.111       .  S
Co124       O126   2.105       .  S
Co125       O126   2.103   1_655  S
C127        C952   1.485       .  S
C128        C616   1.486       .  S
C129       C1024   1.480       .  S
C130        C448   1.481       .  S
O131        C139   1.268       .  A
O131       Co151   1.982       .  S
O132        C140   1.238       .  A
O132       Co152   1.983   1_655  S
O133        C141   1.272       .  A
O133       Co153   2.012       .  S
O134        C142   1.286       .  A
O134       Co154   2.063       .  S
O135        C141   1.267       .  A
O135       Co152   1.994       .  S
O136        C142   1.253       .  A
O136       Co151   1.929   1_655  S
O137        C140   1.245       .  A
O137       Co154   2.031       .  S
O138        C139   1.273       .  A
O138       Co153   1.999       .  S
C139        C226   1.464       .  S
C140        C402   1.483       .  S
C141        C171   1.477       .  S
C142        C286   1.468       .  S
O143        C156   1.285       .  A
O143       Co151   2.073   1_655  S
O144        C157   1.259       .  A
O144       Co152   1.983       .  S
O145        C158   1.257       .  A
O145       Co153   1.965       .  S
O146        C159   1.284       .  A
O146       Co154   1.881       .  S
O147        C159   1.327       .  A
O147       Co152   2.183   1_655  S
O148        C158   1.260       .  A
O148       Co151   1.987       .  S
O149        C156   1.261       .  A
O149       Co154   1.967       .  S
O150        C157   1.254       .  A
O150       Co153   1.960       .  S
Co151       O155   2.060       .  S
Co152       O155   2.084       .  S
Co153       O155   2.079       .  S
Co154       O155   2.022   1_655  S
C156        C940   1.495       .  S
C157        C529   1.465       .  S
C158       C1093   1.462       .  S
C159        C469   1.495       .  S
O160        C168   1.268       .  A
O160       Co180   2.000       .  S
O161        C169   1.271       .  A
O161       Co181   2.015       .  S
O162        C170   1.259       .  A
O162       Co182   1.978       .  S
O163        C171   1.267       .  A
O163       Co183   1.982   1_554  S
O164        C170   1.275       .  A
O164       Co181   2.026       .  S
O165        C171   1.273       .  A
O165       Co180   2.019       .  S
O166        C169   1.266       .  A
O166       Co183   1.987       .  S
O167        C168   1.270       .  A
O167       Co182   1.991   1_554  S
C168        C229   1.471       .  S
C169        C345   1.478       .  S
O172        C185   1.261       .  A
O172       Co180   1.961       .  S
O173        C186   1.253       .  A
O173       Co181   1.953       .  S
O174        C187   1.266       .  A
O174       Co182   1.992   1_554  S
O175        C188   1.274       .  A
O175       Co183   2.036       .  S
O176        C188   1.258       .  A
O176       Co181   1.960       .  S
O177        C187   1.265       .  A
O177       Co180   1.980       .  S
O178        C185   1.273       .  A
O178       Co183   2.015   1_554  S
O179        C186   1.281       .  A
O179       Co182   2.075       .  S
Co180       O184   2.113   1_554  S
Co181       O184   2.095       .  S
Co182       O184   2.112       .  S
Co183       O184   2.109       .  S
C185        C541   1.475       .  S
C186        C700   1.484       .  S
C187        C745   1.480       .  S
C188        C601   1.483       .  S
O189        C197   1.276       .  A
O189       Co209   2.016       .  S
O190        C198   1.303       .  A
O190       Co210   2.131       .  S
O191        C199   1.260       .  A
O191       Co211   1.985   1_655  S
O192        C200   1.281       .  A
O192       Co212   2.007       .  S
O193        C199   1.276       .  A
O193       Co210   2.029       .  S
O194        C200   1.271       .  A
O194       Co209   1.992       .  S
O195        C198   1.269       .  A
O195       Co212   1.898   1_655  S
O196        C197   1.267       .  A
O196       Co211   1.986       .  S
C197        C228   1.473       .  S
C198        C316   1.484       .  S
C199        C284   1.488       .  S
C200        C257   1.478       .  S
O201        C214   1.256       .  A
O201       Co209   1.959       .  S
O202        C215   1.265       .  A
O202       Co210   1.984       .  S
O203        C216   1.271       .  A
O203       Co211   2.030       .  S
O204        C217   1.302       .  A
O204       Co212   2.135   1_655  S
O205        C217   1.271       .  A
O205       Co210   1.925       .  S
O206        C216   1.252       .  A
O206       Co209   1.944       .  S
O207        C214   1.264       .  A
O207       Co212   1.979       .  S
O208        C215   1.284       .  A
O208       Co211   2.050   1_655  S
Co209       O213   2.035       .  S
Co210       O213   2.020   1_655  S
Co211       O213   2.043       .  S
Co212       O213   1.989       .  S
C214        C553   1.453       .  S
C215        C973   1.491       .  S
C216       C1036   1.466       .  S
C217        C493   1.505       .  S
O218        C226   1.269       .  A
O218       Co238   1.997       .  S
O219        C227   1.269       .  A
O219       Co239   2.013       .  S
O220        C228   1.266       .  A
O220       Co240   1.977   1_545  S
O221        C229   1.257       .  A
O221       Co241   1.971       .  S
O222        C228   1.269       .  A
O222       Co239   2.011       .  S
O223        C229   1.273       .  A
O223       Co238   2.024       .  S
O224        C227   1.259       .  A
O224       Co241   1.946   1_545  S
O225        C226   1.263       .  A
O225       Co240   1.979       .  S
C227        C255   1.450       .  S
O230        C243   1.251       .  A
O230       Co238   1.935       .  S
O231        C244   1.266       .  A
O231       Co239   1.980       .  S
O232        C245   1.273       .  A
O232       Co240   2.035       .  S
O233        C246   1.268       .  A
O233       Co241   2.014   1_545  S
O234        C246   1.265       .  A
O234       Co239   1.974       .  S
O235        C245   1.255       .  A
O235       Co238   1.947       .  S
O236        C243   1.271       .  A
O236       Co241   2.024       .  S
O237        C244   1.271       .  A
O237       Co240   2.012   1_545  S
Co238       O242   2.096       .  S
Co239       O242   2.116   1_545  S
Co240       O242   2.106       .  S
Co241       O242   2.105       .  S
C243        C736   1.457       .  S
C244       C1045   1.489       .  S
C245       C1108   1.474       .  S
C246        C856   1.489       .  S
O247        C255   1.273       .  A
O247       Co267   1.885       .  S
O248        C256   1.262       .  A
O248       Co268   1.973       .  S
O249        C257   1.280       .  A
O249       Co269   2.012       .  S
O250        C258   1.275       .  A
O250       Co270   2.008       .  S
O251        C257   1.268       .  A
O251       Co268   1.995   1_554  S
O252        C258   1.272       .  A
O252       Co267   1.982   1_556  S
O253        C256   1.276       .  A
O253       Co270   2.017       .  S
O254        C255   1.286       .  A
O254       Co269   2.087       .  S
O259        C272   1.269       .  A
O259       Co267   2.007   1_556  S
O260        C273   1.275       .  A
O260       Co268   1.999   1_554  S
O261        C274   1.276       .  A
O261       Co269   1.942       .  S
O262        C275   1.256       .  A
O262       Co270   1.952       .  S
O263        C275   1.280       .  A
O263       Co268   2.054       .  S
O264        C274   1.293       .  A
O264       Co267   2.110       .  S
O265        C272   1.257       .  A
O265       Co270   1.955       .  S
O266        C273   1.270       .  A
O266       Co269   1.984       .  S
Co267       O271   1.996   1_554  S
Co268       O271   2.032       .  S
Co269       O271   2.000   1_554  S
Co270       O271   2.013       .  S
C272        C808   1.466       .  S
C273        C568   1.478       .  S
C274        C868   1.506       .  S
C275        C628   1.475       .  S
O276        C284   1.266       .  A
O276       Co296   1.998       .  S
O277        C285   1.267       .  A
O277       Co297   2.004       .  S
O278        C286   1.285       .  A
O278       Co298   1.893       .  S
O279        C287   1.267       .  A
O279       Co299   1.987       .  S
O280        C286   1.294       .  A
O280       Co297   2.089       .  S
O281        C287   1.271       .  A
O281       Co296   2.010       .  S
O282        C285   1.266       .  A
O282       Co299   2.005   1_565  S
O283        C284   1.277       .  A
O283       Co298   2.018   1_545  S
C285        C400   1.486       .  S
C287        C313   1.474       .  S
O288        C301   1.266       .  A
O288       Co296   1.970       .  S
O289        C302   1.252       .  A
O289       Co297   1.946       .  S
O290        C303   1.309       .  A
O290       Co298   2.118   1_545  S
O291        C304   1.275       .  A
O291       Co299   2.036   1_565  S
O292        C304   1.255       .  A
O292       Co297   1.948       .  S
O293        C303   1.269       .  A
O293       Co296   1.939       .  S
O294        C301   1.275       .  A
O294       Co299   2.009       .  S
O295        C302   1.281       .  A
O295       Co298   2.060       .  S
Co296       O300   2.078       .  S
Co297       O300   2.119   1_565  S
Co298       O300   1.916   1_565  S
Co299       O300   2.057       .  S
C301        C829   1.471       .  S
C302        C925   1.477       .  S
C303        C985   1.492       .  S
C304        C712   1.458       .  S
O305        C313   1.276       .  A
O305       Co325   2.010       .  S
O306        C314   1.275       .  A
O306       Co326   2.000       .  S
O307        C315   1.276       .  A
O307       Co327   2.002   1_556  S
O308        C316   1.274       .  A
O308       Co328   1.899       .  S
O309        C315   1.272       .  A
O309       Co326   1.999       .  S
O310        C316   1.302       .  A
O310       Co325   2.144       .  S
O311        C314   1.274       .  A
O311       Co328   1.995   1_556  S
O312        C313   1.270       .  A
O312       Co327   1.985       .  S
C315        C373   1.477       .  S
O317        C330   1.277       .  A
O317       Co325   1.924       .  S
O318        C331   1.266       .  A
O318       Co326   1.970       .  S
O319        C332   1.278       .  A
O319       Co327   2.019       .  S
O320        C333   1.273       .  A
O320       Co328   2.006   1_556  S
O321        C333   1.263       .  A
O321       Co326   1.966       .  S
O322        C332   1.280       .  A
O322       Co325   2.016       .  S
O323        C330   1.290       .  A
O323       Co328   2.112       .  S
O324        C331   1.272       .  A
O324       Co327   2.004   1_556  S
Co325       O329   2.003   1_554  S
Co326       O329   2.022       .  S
Co327       O329   2.019   1_554  S
Co328       O329   1.983   1_554  S
C330        C508   1.493       .  S
C331        C784   1.479       .  S
C332        C844   1.510       .  S
C333        C457   1.464       .  S
O334        C342   1.272       .  A
O334       Co354   2.029       .  S
O335        C343   1.270       .  A
O335       Co355   2.006       .  S
O336        C344   1.267       .  A
O336       Co356   1.991   1_655  S
O337        C345   1.266       .  A
O337       Co357   1.985       .  S
O338        C344   1.275       .  A
O338       Co355   2.026       .  S
O339        C345   1.272       .  A
O339       Co354   2.016       .  S
O340        C343   1.269       .  A
O340       Co357   1.987   1_655  S
O341        C342   1.255       .  A
O341       Co356   1.966       .  S
C343        C401   1.474       .  S
C344        C374   1.483       .  S
O346        C359   1.251       .  A
O346       Co354   1.935       .  S
O347        C360   1.265       .  A
O347       Co355   1.979       .  S
O348        C361   1.284       .  A
O348       Co356   2.090       .  S
O349        C362   1.270       .  A
O349       Co357   2.015   1_655  S
O350        C362   1.268       .  A
O350       Co355   1.983       .  S
O351        C361   1.248       .  A
O351       Co354   1.953       .  S
O352        C359   1.275       .  A
O352       Co357   2.039       .  S
O353        C360   1.265       .  A
O353       Co356   1.995   1_655  S
Co354       O358   2.095       .  S
Co355       O358   2.108   1_655  S
Co356       O358   2.106       .  S
Co357       O358   2.113       .  S
C359        C592   1.466       .  S
C360        C904   1.475       .  S
C361       C1069   1.496       .  S
C362        C424   1.491       .  S
O363        C371   1.268       .  A
O363       Co383   1.986   1_545  S
O364        C372   1.258       .  A
O364       Co384   1.971       .  S
O365        C373   1.273       .  A
O365       Co385   2.019       .  S
O366        C374   1.270       .  A
O366       Co386   2.016       .  S
O367        C373   1.261       .  A
O367       Co384   1.980   1_545  S
O368        C374   1.267       .  A
O368       Co383   1.991       .  S
O369        C372   1.274       .  A
O369       Co386   2.028       .  S
O370        C371   1.272       .  A
O370       Co385   2.010       .  S
C372        C403   1.473       .  S
O375        C388   1.275       .  A
O375       Co383   2.035       .  S
O376        C389   1.274       .  A
O376       Co384   2.033   1_545  S
O377        C390   1.266       .  A
O377       Co385   1.982       .  S
O378        C391   1.252       .  A
O378       Co386   1.949       .  S
O379        C391   1.274       .  A
O379       Co384   2.055       .  S
O380        C390   1.272       .  A
O380       Co383   2.026   1_545  S
O381        C388   1.256       .  A
O381       Co386   1.952       .  S
O382        C389   1.265       .  A
O382       Co385   1.975       .  S
Co383       O387   2.114       .  S
Co384       O387   2.117       .  S
Co385       O387   2.109   1_545  S
Co386       O387   2.097       .  S
C388        C916   1.479       .  S
C389        C772   1.488       .  S
C390        C964   1.495       .  S
C391        C664   1.472       .  S
O392        C400   1.268       .  A
O392       Co412   1.989   1_554  S
O393        C401   1.261       .  A
O393       Co413   1.978       .  S
O394        C402   1.274       .  A
O394       Co414   2.020       .  S
O395        C403   1.268       .  A
O395       Co415   2.006       .  S
O396        C402   1.267       .  A
O396       Co413   1.992   1_554  S
O397        C403   1.269       .  A
O397       Co412   1.986       .  S
O398        C401   1.273       .  A
O398       Co415   2.022       .  S
O399        C400   1.275       .  A
O399       Co414   2.022       .  S
O404        C417   1.273       .  A
O404       Co412   2.033       .  S
O405        C418   1.273       .  A
O405       Co413   2.025   1_554  S
O406        C419   1.266       .  A
O406       Co414   1.974       .  S
O407        C420   1.252       .  A
O407       Co415   1.945       .  S
O408        C420   1.277       .  A
O408       Co413   2.062       .  S
O409        C419   1.270       .  A
O409       Co412   2.020   1_554  S
O410        C417   1.257       .  A
O410       Co415   1.952       .  S
O411        C418   1.266       .  A
O411       Co414   1.995       .  S
Co412       O416   2.120       .  S
Co413       O416   2.116       .  S
Co414       O416   2.103   1_554  S
Co415       O416   2.094       .  S
C417        C676   1.478       .  S
C418        C484   1.504       .  S
C419        C724   1.486       .  S
C420        C433   1.475       .  S
C421        C422   1.399       .  A
C421        C426   1.410       .  A
C422        C423   1.395       .  A
C422        H427   1.081       .  S
C423        C424   1.417       .  A
C423        O428   1.373       .  S
C424        C425   1.407       .  A
C425        C426   1.408       .  A
C425        H429   1.083       .  S
C426        O430   1.373       .  S
O428        H432   0.991       .  S
O430        H431   0.992       .  S
C433        C434   1.394       .  A
C433        C438   1.405       .  A
C434        C435   1.407       .  A
C434        H439   1.078       .  S
C435        C436   1.421       .  A
C435        O440   1.371       .  S
C436        C437   1.415       .  A
C437        C438   1.405       .  A
C437        H441   1.080       .  S
C438        O442   1.372       .  S
O440        H444   0.993       .  S
O442        H443   0.990       .  S
C445        C446   1.405       .  A
C445        C450   1.415       .  A
C446        C447   1.408       .  A
C446        H451   1.083       .  S
C447        C448   1.411       .  A
C447        O452   1.371       .  S
C448        C449   1.394       .  A
C449        C450   1.396       .  A
C449        H453   1.081       .  S
C450        O454   1.372       .  S
O452        H456   0.992       .  S
O454        H455   0.993       .  S
C457        C458   1.394       .  A
C457        C462   1.407       .  A
C458        C459   1.393       .  A
C458        H463   1.080       .  S
C459        C460   1.412       .  A
C459        O464   1.372       .  S
C460        C461   1.402       .  A
C461        C462   1.400       .  A
C461        H465   1.084       .  S
C462        O466   1.371       .  S
O464        H468   0.990   1_556  S
O466        H467   0.992       .  S
C469        C470   1.405       .  A
C469        C474   1.395       .  A
C470        C471   1.424       .  A
C470        H475   1.083       .  S
C471        C472   1.424       .  A
C471        O476   1.377       .  S
C472        C473   1.407       .  A
C473        C474   1.394       .  A
C473        H477   1.066       .  S
C474        O478   1.363       .  S
O476        H480   0.992       .  S
O478        H479   0.992       .  S
C481        C482   1.409       .  A
C481        C486   1.414       .  A
C482        C483   1.418       .  A
C482        H487   1.083       .  S
C483        C484   1.416       .  A
C483        O488   1.372       .  S
C484        C485   1.402       .  A
C485        C486   1.401       .  A
C485        H489   1.083       .  S
C486        O490   1.373       .  S
O488        H492   0.992       .  S
O490        H491   0.992       .  S
C493        C494   1.391       .  A
C493        C498   1.412       .  A
C494        C495   1.400       .  A
C494        H499   1.081       .  S
C495        C496   1.426       .  A
C495        O500   1.356       .  S
C496        C497   1.423       .  A
C497        C498   1.423       .  A
C497        H501   1.081       .  S
C498        O502   1.371       .  S
O500        H504   0.988       .  S
O502        H503   0.990       .  S
C505        C506   1.404       .  A
C505        C510   1.416       .  A
C506        C507   1.402       .  A
C506        H511   1.081       .  S
C507        C508   1.412       .  A
C507        O512   1.374       .  S
C508        C509   1.406       .  A
C509        C510   1.416       .  A
C509        H513   1.083       .  S
C510        O514   1.372       .  S
O512        H516   0.991       .  S
O514        H515   0.991       .  S
C517        C518   1.388       .  A
C517        C522   1.414       .  A
C518        C519   1.386   1_556  A
C518        H523   1.078       .  S
C519        C520   1.418       .  A
C519        O524   1.370       .  S
C520        C521   1.411       .  A
C521        C522   1.416   1_554  A
C521        H525   1.079       .  S
C522        O526   1.372       .  S
O524        H528   0.993       .  S
O526        H527   0.992       .  S
C529        C530   1.393       .  A
C529        C534   1.408       .  A
C530        C531   1.380       .  A
C530        H535   1.084       .  S
C531        C532   1.406       .  A
C531        O536   1.365       .  S
C532        C533   1.405       .  A
C533        C534   1.406       .  A
C533        H537   1.083       .  S
C534        O538   1.371       .  S
O536        H540   0.988       .  S
O538        H539   0.992       .  S
C541        C542   1.393       .  A
C541        C546   1.412       .  A
C542        C543   1.387       .  A
C542        H547   1.079       .  S
C543        C544   1.403       .  A
C543        O548   1.371       .  S
C544        C545   1.406       .  A
C545        C546   1.409       .  A
C545        H549   1.083       .  S
C546        O550   1.371       .  S
O548        H552   0.993       .  S
O550        H551   0.992       .  S
C553        C554   1.388       .  A
C553        C558   1.407       .  A
C554        C555   1.382       .  A
C554        H559   1.085       .  S
C555        C556   1.410       .  A
C555        O560   1.368       .  S
C556        C557   1.403       .  A
C557        C558   1.400       .  A
C557        H561   1.084       .  S
C558        O562   1.371       .  S
O560        H564   0.992       .  S
O562        H563   0.991       .  S
C565        C566   1.411       .  A
C565        C570   1.419       .  A
C566        C567   1.413       .  A
C566        H571   1.083       .  S
C567        C568   1.408       .  A
C567        O572   1.370       .  S
C568        C569   1.392       .  A
C569        C570   1.389       .  A
C569        H573   1.085       .  S
C570        O574   1.369       .  S
O572        H576   0.992       .  S
O574        H575   0.993       .  S
C577        C578   1.389       .  A
C577        C582   1.413       .  A
C578        C579   1.380   1_455  A
C578        H583   1.082       .  S
C579        C580   1.404       .  A
C579        O584   1.366       .  S
C580        C581   1.421       .  A
C581        C582   1.423   1_655  A
C581        H585   1.083       .  S
C582        O586   1.370       .  S
O584        H588   0.988       .  S
O586        H587   0.992       .  S
C589        C590   1.403       .  A
C589        C594   1.412       .  A
C590        C591   1.404       .  A
C590        H595   1.083       .  S
C591        C592   1.411       .  A
C591        O596   1.371       .  S
C592        C593   1.386       .  A
C593        C594   1.389       .  A
C593        H597   1.078       .  S
C594        O598   1.365       .  S
O596        H600   0.992       .  S
O598        H599   0.989       .  S
C601        C602   1.391       .  A
C601        C606   1.413       .  A
C602        C603   1.396       .  A
C602        H607   1.076       .  S
C603        C604   1.408       .  A
C603        O608   1.374       .  S
C604        C605   1.405       .  A
C605        C606   1.412       .  A
C605        H609   1.083       .  S
C606        O610   1.370       .  S
O608        H612   0.991       .  S
O610        H611   0.992       .  S
C613        C614   1.400       .  A
C613        C618   1.407       .  A
C614        C615   1.395       .  A
C614        H619   1.084       .  S
C615        C616   1.417       .  A
C615        O620   1.372       .  S
C616        C617   1.406       .  A
C617        C618   1.404       .  A
C617        H621   1.083       .  S
C618        O622   1.373       .  S
O620        H624   0.991       .  S
O622        H623   0.991       .  S
C625        C626   1.416       .  A
C625        C630   1.422       .  A
C626        C627   1.406       .  A
C626        H631   1.081       .  S
C627        C628   1.404       .  A
C627        O632   1.372       .  S
C628        C629   1.394       .  A
C629        C630   1.400       .  A
C629        H633   1.080       .  S
C630        O634   1.361       .  S
O632        H636   0.991       .  S
O634        H635   0.992       .  S
C637        C638   1.395       .  A
C637        C642   1.415       .  A
C638        C639   1.382   1_556  A
C638        H643   1.076       .  S
C639        C640   1.400       .  A
C639        O644   1.379       .  S
C640        C641   1.405       .  A
C641        C642   1.412   1_554  A
C641        H645   1.083       .  S
C642        O646   1.372       .  S
O644        H648   0.992       .  S
O646        H647   0.991       .  S
C649        C650   1.397       .  A
C649        C654   1.408       .  A
C650        C651   1.382   1_455  A
C650        H655   1.077       .  S
C651        C652   1.400       .  A
C651        O656   1.373       .  S
C652        C653   1.407       .  A
C653        C654   1.415   1_655  A
C653        H657   1.081       .  S
C654        O658   1.372       .  S
O656        H660   0.991       .  S
O658        H659   0.992       .  S
C661        C662   1.415       .  A
C661        C666   1.423       .  A
C662        C663   1.402       .  A
C662        H667   1.077       .  S
C663        C664   1.398       .  A
C663        O668   1.371       .  S
C664        C665   1.393       .  A
C665        C666   1.408       .  A
C665        H669   1.082       .  S
C666        O670   1.363       .  S
O668        H672   0.991       .  S
O670        H671   0.994       .  S
C673        C674   1.404       .  A
C673        C678   1.406       .  A
C674        C675   1.401       .  A
C674        H679   1.083       .  S
C675        C676   1.413       .  A
C675        O680   1.371       .  S
C676        C677   1.400       .  A
C677        C678   1.393       .  A
C677        H681   1.082       .  S
C678        O682   1.366       .  S
O680        H684   0.992       .  S
O682        H683   0.992       .  S
C685        C686   1.408       .  A
C685        C690   1.415       .  A
C686        C687   1.405       .  A
C686        H691   1.083       .  S
C687        C688   1.408       .  A
C687        O692   1.375       .  S
C688        C689   1.403       .  A
C689        C690   1.398       .  A
C689        H693   1.081       .  S
C690        O694   1.372       .  S
O692        H696   0.992       .  S
O694        H695   0.992       .  S
C697        C698   1.415       .  A
C697        C702   1.420       .  A
C698        C699   1.406       .  A
C698        H703   1.079       .  S
C699        C700   1.405       .  A
C699        O704   1.372       .  S
C700        C701   1.401       .  A
C701        C702   1.412       .  A
C701        H705   1.084       .  S
C702        O706   1.364       .  S
O704        H708   0.990       .  S
O706        H707   0.992       .  S
C709        C710   1.406       .  A
C709        C714   1.417       .  A
C710        C711   1.397       .  A
C710        H715   1.072       .  S
C711        C712   1.401       .  A
C711        O716   1.371       .  S
C712        C713   1.396       .  A
C713        C714   1.399       .  A
C713        H717   1.084       .  S
C714        O718   1.365       .  S
O716        H720   0.992       .  S
O718        H719   0.992       .  S
C721        C722   1.400       .  A
C721        C726   1.412       .  A
C722        C723   1.396       .  A
C722        H727   1.083       .  S
C723        C724   1.415       .  A
C723        O728   1.372       .  S
C724        C725   1.406       .  A
C725        C726   1.406       .  A
C725        H729   1.083       .  S
C726        O730   1.376       .  S
O728        H732   0.992       .  S
O730        H731   0.992       .  S
C733        C734   1.399       .  A
C733        C738   1.407       .  A
C734        C735   1.379       .  A
C734        H739   1.075       .  S
C735        C736   1.394       .  A
C735        O740   1.367       .  S
C736        C737   1.405       .  A
C737        C738   1.404       .  A
C737        H741   1.083       .  S
C738        O742   1.371       .  S
O740        H744   0.990       .  S
O742        H743   0.992       .  S
C745        C746   1.402       .  A
C745        C750   1.411       .  A
C746        C747   1.392       .  A
C746        H751   1.083       .  S
C747        C748   1.409       .  A
C747        O752   1.381       .  S
C748        C749   1.406       .  A
C749        C750   1.408       .  A
C749        H753   1.083       .  S
C750        O754   1.371       .  S
O752        H756   0.992       .  S
O754        H755   0.992       .  S
C757        C758   1.412       .  A
C757        C762   1.409       .  A
C758        C759   1.419   1_554  A
C758        H763   1.075       .  S
C759        C760   1.422       .  A
C759        O764   1.372       .  S
C760        C761   1.391       .  A
C761        C762   1.382   1_556  A
C761        H765   1.078       .  S
C762        O766   1.369       .  S
O764        H768   0.992       .  S
O766        H767   0.995   1_554  S
C769        C770   1.406       .  A
C769        C774   1.409       .  A
C770        C771   1.395       .  A
C770        H775   1.077       .  S
C771        C772   1.407       .  A
C771        O776   1.372       .  S
C772        C773   1.408       .  A
C773        C774   1.411       .  A
C773        H777   1.083       .  S
C774        O778   1.371       .  S
O776        H780   0.989       .  S
O778        H779   0.992       .  S
C781        C782   1.392       .  A
C781        C786   1.403       .  A
C782        C783   1.390       .  A
C782        H787   1.079       .  S
C783        C784   1.412       .  A
C783        O788   1.378       .  S
C784        C785   1.410       .  A
C785        C786   1.403       .  A
C785        H789   1.083       .  S
C786        O790   1.371       .  S
O788        H792   0.993       .  S
O790        H791   0.991       .  S
C793        C794   1.408       .  A
C793        C798   1.419       .  A
C794        C795   1.416       .  A
C794        H799   1.083       .  S
C795        C796   1.412       .  A
C795        O800   1.371       .  S
C796        C797   1.397       .  A
C797        C798   1.394       .  A
C797        H801   1.083       .  S
C798        O802   1.370       .  S
O800        H804   0.991       .  S
O802        H803   0.992       .  S
C805        C806   1.404       .  A
C805        C810   1.400       .  A
C806        C807   1.391       .  A
C806        H811   1.078       .  S
C807        C808   1.403       .  A
C807        O812   1.373       .  S
C808        C809   1.408       .  A
C809        C810   1.394       .  A
C809        H813   1.083       .  S
C810        O814   1.371       .  S
O812        H816   0.991       .  S
O814        H815   0.992       .  S
C817        C818   1.394       .  A
C817        C822   1.403       .  A
C818        C819   1.389   1_545  A
C818        H823   1.075       .  S
C819        C820   1.403       .  A
C819        O824   1.374       .  S
C820        C821   1.416       .  A
C821        C822   1.411   1_565  A
C821        H825   1.080       .  S
C822        O826   1.370       .  S
O824        H828   0.992       .  S
O826        H827   0.992       .  S
C829        C830   1.395       .  A
C829        C834   1.407       .  A
C830        C831   1.393       .  A
C830        H835   1.084       .  S
C831        C832   1.416       .  A
C831        O836   1.372       .  S
C832        C833   1.406       .  A
C833        C834   1.405       .  A
C833        H837   1.083       .  S
C834        O838   1.371       .  S
O836        H840   0.993       .  S
O838        H839   0.992       .  S
C841        C842   1.395       .  A
C841        C846   1.415       .  A
C842        C843   1.391       .  A
C842        H847   1.077       .  S
C843        C844   1.413       .  A
C843        O848   1.366       .  S
C844        C845   1.414       .  A
C845        C846   1.425       .  A
C845        H849   1.083       .  S
C846        O850   1.370       .  S
O848        H852   0.991       .  S
O850        H851   0.992       .  S
C853        C854   1.396       .  A
C853        C858   1.410       .  A
C854        C855   1.389       .  A
C854        H859   1.084       .  S
C855        C856   1.418       .  A
C855        O860   1.371       .  S
C856        C857   1.404       .  A
C857        C858   1.409       .  A
C857        H861   1.083       .  S
C858        O862   1.375       .  S
O860        H864   0.991       .  S
O862        H863   0.992       .  S
C865        C866   1.425       .  A
C865        C870   1.421       .  A
C866        C867   1.422       .  A
C866        H871   1.083       .  S
C867        C868   1.407       .  A
C867        O872   1.370       .  S
C868        C869   1.399       .  A
C869        C870   1.402       .  A
C869        H873   1.079       .  S
C870        O874   1.362       .  S
O872        H876   0.992       .  S
O874        H875   0.993       .  S
C877        C878   1.401       .  A
C877        C882   1.406       .  A
C878        C879   1.397   1_545  A
C878        H883   1.079       .  S
C879        C880   1.407       .  A
C879        O884   1.373       .  S
C880        C881   1.412       .  A
C881        C882   1.407   1_565  A
C881        H885   1.083       .  S
C882        O886   1.369       .  S
O884        H888   0.991       .  S
O886        H887   0.992       .  S
C889        C890   1.397       .  A
C889        C894   1.411       .  A
C890        C891   1.383   1_554  A
C890        H895   1.078       .  S
C891        C892   1.405       .  A
C891        O896   1.371       .  S
C892        C893   1.410       .  A
C893        C894   1.416   1_556  A
C893        H897   1.082       .  S
C894        O898   1.370       .  S
O896        H900   0.992       .  S
O898        H899   0.991       .  S
C901        C902   1.400       .  A
C901        C906   1.408       .  A
C902        C903   1.385       .  A
C902        H907   1.079       .  S
C903        C904   1.407       .  A
C903        O908   1.373       .  S
C904        C905   1.409       .  A
C905        C906   1.410       .  A
C905        H909   1.083       .  S
C906        O910   1.370       .  S
O908        H912   0.992       .  S
O910        H911   0.992       .  S
C913        C914   1.405       .  A
C913        C918   1.411       .  A
C914        C915   1.407       .  A
C914        H919   1.083       .  S
C915        C916   1.411       .  A
C915        O920   1.371       .  S
C916        C917   1.391       .  A
C917        C918   1.395       .  A
C917        H921   1.072       .  S
C918        O922   1.378       .  S
O920        H924   0.992       .  S
O922        H923   0.992       .  S
C925        C926   1.403       .  A
C925        C930   1.411       .  A
C926        C927   1.396       .  A
C926        H931   1.083       .  S
C927        C928   1.406       .  A
C927        O932   1.373       .  S
C928        C929   1.405       .  A
C929        C930   1.399       .  A
C929        H933   1.083       .  S
C930        O934   1.371       .  S
O932        H936   0.992       .  S
O934        H935   0.992       .  S
C937        C938   1.408       .  A
C937        C942   1.423       .  A
C938        C939   1.398       .  A
C938        H943   1.074       .  S
C939        C940   1.402       .  A
C939        O944   1.371       .  S
C940        C941   1.413       .  A
C941        C942   1.432       .  A
C941        H945   1.083       .  S
C942        O946   1.377       .  S
O944        H948   0.992       .  S
O946        H947   0.992       .  S
C949        C950   1.407       .  A
C949        C954   1.407       .  A
C950        C951   1.411       .  A
C950        H955   1.083       .  S
C951        C952   1.411       .  A
C951        O956   1.371       .  S
C952        C953   1.392       .  A
C953        C954   1.398       .  A
C953        H957   1.070       .  S
C954        O958   1.376       .  S
O956        H960   0.991       .  S
O958        H959   0.992       .  S
C961        C962   1.396       .  A
C961        C966   1.408       .  A
C962        C963   1.393       .  A
C962        H967   1.075       .  S
C963        C964   1.412       .  A
C963        O968   1.372       .  S
C964        C965   1.412       .  A
C965        C966   1.413       .  A
C965        H969   1.083       .  S
C966        O970   1.370       .  S
O968        H972   0.991       .  S
O970        H971   0.992       .  S
C973        C974   1.405       .  A
C973        C978   1.401       .  A
C974        C975   1.417       .  A
C974        H979   1.083       .  S
C975        C976   1.418       .  A
C975        O980   1.367       .  S
C976        C977   1.415       .  A
C977        C978   1.401       .  A
C977        H981   1.077       .  S
C978        O982   1.372       .  S
O980        H984   0.992       .  S
O982        H983   0.990       .  S
C985        C986   1.409       .  A
C985        C990   1.411       .  A
C986        C987   1.401       .  A
C986        H991   1.083       .  S
C987        C988   1.407       .  A
C987        O992   1.372       .  S
C988        C989   1.408       .  A
C989        C990   1.405       .  A
C989        H993   1.081       .  S
C990        O994   1.371       .  S
O992        H996   0.992       .  S
O994        H995   0.991       .  S
C997        C998   1.396       .  A
C997       C1002   1.407       .  A
C998        C999   1.380   1_565  A
C998       H1003   1.084       .  S
C999       C1000   1.404       .  A
C999       O1004   1.370       .  S
C1000      C1001   1.406       .  A
C1001      C1002   1.408   1_545  A
C1001      H1005   1.082       .  S
C1002      O1006   1.371       .  S
O1004      H1008   0.991       .  S
O1006      H1007   0.991       .  S
C1009      C1010   1.396       .  A
C1009      C1014   1.413       .  A
C1010      C1011   1.386       .  A
C1010      H1015   1.073       .  S
C1011      C1012   1.405       .  A
C1011      O1016   1.366       .  S
C1012      C1013   1.410       .  A
C1013      C1014   1.418       .  A
C1013      H1017   1.083       .  S
C1014      O1018   1.370       .  S
O1016      H1020   0.990       .  S
O1018      H1019   0.992       .  S
C1021      C1022   1.405       .  A
C1021      C1026   1.405       .  A
C1022      C1023   1.407       .  A
C1022      H1027   1.083       .  S
C1023      C1024   1.411       .  A
C1023      O1028   1.371       .  S
C1024      C1025   1.400       .  A
C1025      C1026   1.384       .  A
C1025      H1029   1.081       .  S
C1026      O1030   1.373       .  S
O1028      H1032   0.992       .  S
O1030      H1031   0.987       .  S
C1033      C1034   1.416       .  A
C1033      C1038   1.404       .  A
C1034      C1035   1.408       .  A
C1034      H1039   1.081       .  S
C1035      C1036   1.408       .  A
C1035      O1040   1.372       .  S
C1036      C1037   1.384       .  A
C1037      C1038   1.395       .  A
C1037      H1041   1.063       .  S
C1038      O1042   1.372       .  S
O1040      H1044   0.990       .  S
O1042      H1043   0.989       .  S
C1045      C1046   1.409       .  A
C1045      C1050   1.413       .  A
C1046      C1047   1.411       .  A
C1046      H1051   1.083       .  S
C1047      C1048   1.411       .  A
C1047      O1052   1.370       .  S
C1048      C1049   1.395       .  A
C1049      C1050   1.383       .  A
C1049      H1053   1.070       .  S
C1050      O1054   1.371       .  S
O1052      H1056   0.992       .  S
O1054      H1055   0.987       .  S
C1057      C1058   1.414       .  A
C1057      C1062   1.411       .  A
C1058      C1059   1.419   1_455  A
C1058      H1063   1.082       .  S
C1059      C1060   1.417       .  A
C1059      O1064   1.373       .  S
C1060      C1061   1.398       .  A
C1061      C1062   1.399   1_655  A
C1061      H1065   1.077       .  S
C1062      O1066   1.372       .  S
O1064      H1068   0.992       .  S
O1066      H1067   0.993       .  S
C1069      C1070   1.412       .  A
C1069      C1074   1.406       .  A
C1070      C1071   1.421       .  A
C1070      H1075   1.083       .  S
C1071      C1072   1.421       .  A
C1071      O1076   1.371       .  S
C1072      C1073   1.413       .  A
C1073      C1074   1.406       .  A
C1073      H1077   1.078       .  S
C1074      O1078   1.372       .  S
O1076      H1080   0.991       .  S
O1078      H1079   0.989       .  S
C1081      C1082   1.391       .  A
C1081      C1086   1.406       .  A
C1082      C1083   1.382       .  A
C1082      H1087   1.078       .  S
C1083      C1084   1.418       .  A
C1083      O1088   1.375       .  S
C1084      C1085   1.405       .  A
C1085      C1086   1.399       .  A
C1085      H1089   1.083       .  S
C1086      O1090   1.372       .  S
O1088      H1092   0.991       .  S
O1090      H1091   0.992       .  S
C1093      C1094   1.405       .  A
C1093      C1098   1.405       .  A
C1094      C1095   1.402       .  A
C1094      H1099   1.083       .  S
C1095      C1096   1.404       .  A
C1095      O1100   1.372       .  S
C1096      C1097   1.404       .  A
C1097      C1098   1.386       .  A
C1097      H1101   1.083       .  S
C1098      O1102   1.373       .  S
O1100      H1104   0.991       .  S
O1102      H1103   0.990       .  S
C1105      C1106   1.401       .  A
C1105      C1110   1.403       .  A
C1106      C1107   1.395       .  A
C1106      H1111   1.076       .  S
C1107      C1108   1.401       .  A
C1107      O1112   1.374       .  S
C1108      C1109   1.408       .  A
C1109      C1110   1.405       .  A
C1109      H1113   1.083       .  S
C1110      O1114   1.371       .  S
O1112      H1116   0.992       .  S
O1114      H1115   0.991       .  S
C1117      C1118   1.406       .  A
C1117      C1122   1.406       .  A
C1118      C1119   1.408   1_565  A
C1118      H1123   1.082       .  S
C1119      C1120   1.407       .  A
C1119      O1124   1.370       .  S
C1120      C1121   1.400       .  A
C1121      C1122   1.389   1_545  A
C1121      H1125   1.081       .  S
C1122      O1126   1.376       .  S
O1124      H1128   0.992       .  S
O1126      H1127   0.992       .  S
C1129      C1130   1.411       .  A
C1129      C1134   1.414       .  A
C1130      C1131   1.405   1_655  A
C1130      H1135   1.070       .  S
C1131      C1132   1.407       .  A
C1131      O1136   1.372       .  S
C1132      C1133   1.415       .  A
C1133      C1134   1.410   1_455  A
C1133      H1137   1.070       .  S
C1134      O1138   1.369       .  S
O1136      H1140   0.986       .  S
O1138      H1139   0.987       .  S
