geometry optimzed in LAMMPS
_audit_creation_date              2020-11-30 
_audit_creation_method            'lammps2cif' 
_symmetry_space_group_name_H-M    'P1' 
_symmetry_Int_Tables_number       1 
_symmetry_cell_setting            triclinic 
loop_ 
_symmetry_equiv_pos_as_xyz 
  x,y,z 
_cell_length_a                    72.77539719674388 
_cell_length_b                    72.87950804712767 
_cell_length_c                    72.9007839329614 
_cell_angle_alpha                 89.9987863443597 
_cell_angle_beta                  90.04454596242905 
_cell_angle_gamma                 90.0739902621763 
loop_ 
_atom_site_label 
_atom_site_type_symbol 
_atom_site_fract_x 
_atom_site_fract_y 
_atom_site_fract_z 
_atom_site_charge 
C1          C  0.85792959  0.80906045  0.50005245     0.03310
C2          C  0.86514458  0.80235755  0.48347078    -0.12840
C3          C  0.87935468  0.78910502  0.48333279     0.00810
C4          C  0.88640576  0.78278251  0.50013840    -0.11360
C5          C  0.87920820  0.78905754  0.51687517     0.03310
C6          C  0.86496936  0.80225443  0.51666805    -0.10780
H7          H  0.85971745  0.80767054  0.47071427     0.08900
H8          H  0.89698880  0.77236604  0.50021256     0.06430
H9          H  0.85941873  0.80744568  0.52942167     0.06280
C10         C  0.80115457  0.86571087  0.49996472     0.03310
C11         C  0.79443888  0.87294593  0.51652650    -0.12840
C12         C  0.78123680  0.88719330  0.51662473     0.00810
C13         C  0.77496037  0.89426112  0.49981813    -0.11360
C14         C  0.78125117  0.88705006  0.48308732     0.03310
C15         C  0.79445332  0.87281161  0.48333318    -0.10780
H16         H  0.79963726  0.86746221  0.52930952     0.08900
H17         H  0.76454521  0.90484610  0.49976008     0.06430
H18         H  0.79966334  0.86722630  0.47060603     0.06280
C19         C  0.85820441  0.49991362  0.80920996     0.03310
C20         C  0.86539061  0.48332648  0.80244760    -0.12840
C21         C  0.87977360  0.48317119  0.78940991     0.00810
C22         C  0.88718393  0.49991776  0.78337645    -0.11360
C23         C  0.88011647  0.51666561  0.78973915     0.03310
C24         C  0.86576071  0.51649820  0.80280073    -0.10780
H25         H  0.85986067  0.47052274  0.80756389     0.08900
H26         H  0.89784188  0.49993236  0.77302572     0.06430
H27         H  0.86029788  0.52930187  0.80796779     0.06280
C28         C  0.80139850  0.50025999  0.86620126     0.03310
C29         C  0.79432624  0.48362848  0.87302767    -0.12840
C30         C  0.78091843  0.48340591  0.88707334     0.00810
C31         C  0.77460214  0.50012989  0.89426123    -0.11360
C32         C  0.78098459  0.51691507  0.88726989     0.03310
C33         C  0.79437050  0.51680969  0.87322788    -0.10780
H34         H  0.79955522  0.47086058  0.86754890     0.08900
H35         H  0.76404416  0.50008910  0.90470938     0.06430
H36         H  0.79944464  0.52962669  0.86769739     0.06280
C37         C  0.49245322  0.86548397  0.80798962     0.03310
C38         C  0.50905642  0.87258520  0.80104255    -0.12840
C39         C  0.50922587  0.88696395  0.78800337     0.00810
C40         C  0.49245499  0.89438528  0.78204359    -0.11360
C41         C  0.47567411  0.88748470  0.78860694     0.03310
C42         C  0.47585043  0.87319878  0.80175745    -0.10780
H43         H  0.52187540  0.86680893  0.80586079     0.08900
H44         H  0.49245127  0.90503831  0.77170411     0.06430
H45         H  0.46305314  0.86817623  0.80740097     0.06280
C46         C  0.49297653  0.80896856  0.86549732     0.03310
C47         C  0.47625811  0.80251093  0.87279827    -0.12840
C48         C  0.47590491  0.78916469  0.88690633     0.00810
C49         C  0.49259904  0.78239686  0.89380712    -0.11360
C50         C  0.50944315  0.78817499  0.88641365     0.03310
C51         C  0.50945358  0.80135166  0.87217057    -0.10780
H52         H  0.46352259  0.80813693  0.86760289     0.08900
H53         H  0.49246631  0.77195585  0.90436023     0.06430
H54         H  0.52232255  0.80581167  0.86622237     0.06280
C55         C  0.85735322  0.19170175  0.50006085     0.03310
C56         C  0.86500154  0.19797562  0.51662424    -0.12840
C57         C  0.87927211  0.21117757  0.51675650     0.00810
C58         C  0.88613914  0.21772608  0.49997930    -0.11360
C59         C  0.87860993  0.21178592  0.48323972     0.03310
C60         C  0.86417942  0.19874814  0.48345484    -0.10780
H61         H  0.85972400  0.19254670  0.52939929     0.08900
H62         H  0.89680765  0.22808573  0.49997869     0.06430
H63         H  0.85832102  0.19382267  0.47072307     0.06280
C64         C  0.80050390  0.13497433  0.49995284     0.03310
C65         C  0.79353727  0.12802210  0.48335858    -0.12840
C66         C  0.78035558  0.11372163  0.48318719     0.00810
C67         C  0.77415150  0.10650690  0.49995480    -0.11360
C68         C  0.78059154  0.11352863  0.51672103     0.03310
C69         C  0.79390447  0.12768840  0.51654839    -0.10780
H70         H  0.79869995  0.13360965  0.47061002     0.08900
H71         H  0.76372361  0.09590875  0.49996309     0.06430
H72         H  0.79929561  0.13306170  0.52930632     0.06280
C73         C  0.18445926  0.86546990  0.50017044     0.03310
C74         C  0.19074566  0.87316284  0.48361422    -0.12840
C75         C  0.20389743  0.88747350  0.48347109     0.00810
C76         C  0.21046341  0.89433847  0.50024083    -0.11360
C77         C  0.20447493  0.88687556  0.51696420     0.03310
C78         C  0.19138815  0.87250645  0.51677056    -0.10780
H79         H  0.18535476  0.86786203  0.47082833     0.08900
H80         H  0.22082496  0.90500241  0.50026527     0.06430
H81         H  0.18629930  0.86691614  0.52954605     0.06280
C82         C  0.12694282  0.80903918  0.49967829     0.03310
C83         C  0.11998160  0.80200115  0.51626086    -0.12840
C84         C  0.10578252  0.78870681  0.51638873     0.00810
C85         C  0.09862092  0.78245326  0.49961532    -0.11360
C86         C  0.10572128  0.78881986  0.48287862     0.03310
C87         C  0.11988702  0.80211054  0.48308254    -0.10780
H88         H  0.12546632  0.80718557  0.52905532     0.08900
H89         H  0.08805988  0.77198757  0.49958314     0.06430
H90         H  0.12548421  0.80720721  0.47031187     0.06280
C91         C  0.49151762  0.86544738  0.19166588     0.03310
C92         C  0.50820788  0.87271185  0.19825183    -0.12840
C93         C  0.50851237  0.88679732  0.21160805     0.00810
C94         C  0.49180055  0.89372760  0.21826524    -0.11360
C95         C  0.47495309  0.88641855  0.21233110     0.03310
C96         C  0.47499999  0.87215975  0.19915625    -0.10780
H97         H  0.52097350  0.86751386  0.19270884     0.08900
H98         H  0.49193005  0.90429102  0.22869316     0.06430
H99         H  0.46215844  0.86623409  0.19457626     0.06280
C100        C  0.49265327  0.80813022  0.13495390     0.03310
C101        C  0.47609483  0.80124615  0.12766019    -0.12840
C102        C  0.47600738  0.78824413  0.11324487     0.00810
C103        C  0.49283250  0.78225296  0.10600956    -0.11360
C104        C  0.50956074  0.78879138  0.11305294     0.03310
C105        C  0.50931145  0.80189852  0.12736969    -0.10780
H106        H  0.46325712  0.80611481  0.13332278     0.08900
H107        H  0.49292961  0.77195128  0.09532571     0.06430
H108        H  0.52209309  0.80750493  0.13249831     0.06280
C109        C  0.85787789  0.50016319  0.19168960     0.03310
C110        C  0.86535214  0.48355591  0.19803801    -0.12840
C111        C  0.87945449  0.48334585  0.21140187     0.00810
C112        C  0.88637592  0.50009413  0.21801256    -0.11360
C113        C  0.87907193  0.51688369  0.21196918     0.03310
C114        C  0.86476519  0.51674456  0.19880107    -0.10780
H115        H  0.86005452  0.47080367  0.19254718     0.08900
H116        H  0.89693558  0.50003926  0.22847177     0.06430
H117        H  0.85908272  0.52951413  0.19379575     0.06280
C118        C  0.80174735  0.50025214  0.13420462     0.03310
C119        C  0.79452263  0.51683953  0.12753347    -0.12840
C120        C  0.78145773  0.51702795  0.11314090     0.00810
C121        C  0.77554182  0.50028631  0.10560124    -0.11360
C122        C  0.78217360  0.48350627  0.11236961     0.03310
C123        C  0.79543484  0.48366950  0.12657854    -0.10780
H124        H  0.79942241  0.52958675  0.13338695     0.08900
H125        H  0.76517383  0.50029783  0.09495494     0.06430
H126        H  0.80096839  0.47091370  0.13177975     0.06280
C127        C  0.12731345  0.50011667  0.19153264     0.03310
C128        C  0.12015198  0.51673874  0.19826341    -0.12840
C129        C  0.10587081  0.51697055  0.21140942     0.00810
C130        C  0.09855566  0.50025391  0.21762633    -0.11360
C131        C  0.10554898  0.48346284  0.21127802     0.03310
C132        C  0.11979736  0.48356298  0.19808520    -0.10780
H133        H  0.12581447  0.52951651  0.19321920     0.08900
H134        H  0.08795701  0.50031418  0.22803440     0.06430
H135        H  0.12494840  0.47074602  0.19266028     0.06280
C136        C  0.18344432  0.50018669  0.13376387     0.03310
C137        C  0.19010671  0.48349154  0.12669456    -0.12840
C138        C  0.20340019  0.48316051  0.11253498     0.00810
C139        C  0.20995907  0.49983365  0.10541713    -0.11360
C140        C  0.20400222  0.51665441  0.11263037     0.03310
C141        C  0.19079432  0.51666528  0.12684068    -0.10780
H142        H  0.18468302  0.47076317  0.13210354     0.08900
H143        H  0.22042044  0.49971790  0.09487329     0.06430
H144        H  0.18613378  0.52952899  0.13259377     0.06280
C145        C  0.49194528  0.13529691  0.19174311     0.03310
C146        C  0.47529078  0.12785998  0.19810351    -0.12840
C147        C  0.47505184  0.11360150  0.21127267     0.00810
C148        C  0.49180465  0.10651142  0.21769701    -0.11360
C149        C  0.50864774  0.11372082  0.21160804     0.03310
C150        C  0.50853394  0.12817413  0.19862098    -0.10780
H151        H  0.46252709  0.13329974  0.19276775     0.08900
H152        H  0.49171202  0.09582508  0.22799578     0.06430
H153        H  0.52132076  0.13379833  0.19354197     0.06280
C154        C  0.49251783  0.19200468  0.13487248     0.03310
C155        C  0.50919598  0.19914718  0.12822840    -0.12840
C156        C  0.50949843  0.21233646  0.11396156     0.00810
C157        C  0.49275464  0.21846138  0.10654195    -0.11360
C158        C  0.47589910  0.21191193  0.11329122     0.03310
C159        C  0.47596183  0.19855253  0.12737135    -0.10780
H160        H  0.52191470  0.19405674  0.13398546     0.08900
H161        H  0.49281714  0.22888852  0.09597853     0.06430
H162        H  0.46313056  0.19310642  0.13255134     0.06280
C163        C  0.49164705  0.19138535  0.86607677     0.03310
C164        C  0.47518721  0.19936399  0.87235632    -0.12840
C165        C  0.47516240  0.21244384  0.88668938     0.00810
C166        C  0.49194298  0.21784424  0.89450214    -0.11360
C167        C  0.50862374  0.21082825  0.88789899     0.03310
C168        C  0.50832110  0.19749826  0.87379082    -0.10780
H169        H  0.46236085  0.19529125  0.86603288     0.08900
H170        H  0.49207307  0.22828183  0.90506451     0.06430
H171        H  0.52108234  0.19169521  0.86886678     0.06280
C172        C  0.49288305  0.13490742  0.80850806     0.03310
C173        C  0.50950019  0.12695596  0.80260995    -0.12840
C174        C  0.50971646  0.11273499  0.78939541     0.00810
C175        C  0.49298150  0.10602605  0.78253421    -0.11360
C176        C  0.47621984  0.11367225  0.78815487     0.04030
C177        C  0.47632626  0.12805867  0.80116920    -0.10780
H178        H  0.52228500  0.13175504  0.80849450     0.08900
H179        H  0.49303320  0.09542263  0.77213941     0.06430
H180        H  0.46348047  0.13403177  0.80565191     0.06280
C181        C  0.18341193  0.50040762  0.86602418     0.03310
C182        C  0.19067095  0.51692454  0.87296396    -0.12840
C183        C  0.20399921  0.51698420  0.88708814     0.00810
C184        C  0.21013271  0.50018064  0.89423152    -0.11360
C185        C  0.20363773  0.48347440  0.88711734     0.03310
C186        C  0.19025885  0.48374554  0.87300802    -0.10780
H187        H  0.18582559  0.52976020  0.86729795     0.08900
H188        H  0.22065386  0.50009945  0.90473287     0.06430
H189        H  0.18489213  0.47099136  0.86759202     0.06280
C190        C  0.12678379  0.50030042  0.80861679     0.03310
C191        C  0.11936256  0.48373906  0.80194846    -0.12840
C192        C  0.10502134  0.48365051  0.78883501     0.00810
C193        C  0.09789993  0.50043344  0.78262444    -0.11360
C194        C  0.10511892  0.51716204  0.78892491     0.03310
C195        C  0.11944949  0.51692847  0.80205293    -0.10780
H196        H  0.12466030  0.47090706  0.80720568     0.08900
H197        H  0.08726519  0.50046872  0.77224190     0.06430
H198        H  0.12504521  0.52969859  0.80719316     0.06280
C199        C  0.99205880  0.30844626  0.36534361     0.03310
C200        C  0.00866300  0.30194946  0.37282830    -0.12840
C201        C  0.00882459  0.28877963  0.38709041     0.00810
C202        C  0.99202842  0.28237830  0.39410274    -0.11360
C203        C  0.97525748  0.28853969  0.38683289     0.03310
C204        C  0.97543428  0.30167769  0.37254395    -0.10780
H205        H  0.02147696  0.30718898  0.36740479     0.08900
H206        H  0.99200856  0.27199108  0.40470893     0.06430
H207        H  0.96261950  0.30690628  0.36713125     0.06280
C208        C  0.99246066  0.36605433  0.30905880     0.03310
C209        C  0.97579001  0.37297333  0.30211871    -0.12840
C210        C  0.97554517  0.38714539  0.28884187     0.00810
C211        C  0.99228330  0.39437460  0.28252658    -0.11360
C212        C  0.00910390  0.38731630  0.28876057     0.03310
C213        C  0.00902313  0.37313659  0.30200575    -0.10780
H214        H  0.96300677  0.36746111  0.30734348     0.08900
H215        H  0.99222117  0.40491662  0.27207388     0.06430
H216        H  0.02187227  0.36753455  0.30694069     0.06280
N217        N  0.72665254  0.05582434  0.40952041    -0.27100
N218        N  0.72121596  0.06304173  0.39377911    -0.34960
C219        C  0.71195557  0.05053755  0.38395186     0.01240
C220        C  0.71138589  0.03432898  0.39367944     0.07260
C221        C  0.72093704  0.03814564  0.40989258    -0.05840
H222        H  0.70671841  0.05297263  0.37027051     0.07930
H223        H  0.72368260  0.02873091  0.42102203     0.09130
Cu224      Cu  0.72754766  0.08875778  0.38443380     0.44170
Cu225      Cu  0.74210513  0.07099943  0.42911537     0.41990
Cu226      Cu  0.75799423  0.11498795  0.41049731     0.43880
N227        N  0.73694375  0.11374547  0.37574366    -0.34490
N228        N  0.74861868  0.12354823  0.38547124    -0.28750
C229        C  0.75211956  0.13932020  0.37669037    -0.04850
C230        C  0.74210333  0.13939629  0.36052971     0.07370
C231        C  0.73265318  0.12288814  0.36038754     0.01170
H232        H  0.76094145  0.15003448  0.38199497     0.08820
H233        H  0.72331622  0.11780150  0.35001413     0.07900
N234        N  0.76343247  0.10623136  0.43661076    -0.35940
N235        N  0.75755779  0.09075952  0.44408300    -0.28120
C236        C  0.76286205  0.09073218  0.46187996    -0.03360
C237        C  0.77256335  0.10690460  0.46553746     0.05250
C238        C  0.77252935  0.11624088  0.44909037     0.03340
H239        H  0.75977704  0.07983163  0.47146093     0.08450
H240        H  0.77810408  0.12974905  0.44641292     0.07280
C241        C  0.75348872  0.18229401  0.33366183     0.03310
C242        C  0.75434555  0.16824859  0.34671232    -0.12840
C243        C  0.74121651  0.15415571  0.34675542     0.00810
C244        C  0.72721355  0.15429544  0.33354569    -0.11360
C245        C  0.72621694  0.16842238  0.32061251     0.03310
C246        C  0.73951944  0.18225778  0.32051918    -0.10780
H247        H  0.76541604  0.16831282  0.35663472     0.08900
H248        H  0.71698479  0.14351189  0.33321779     0.06430
H249        H  0.73905072  0.19292969  0.31017069     0.06280
N250        N  0.54768764  0.09028721  0.23414339    -0.27100
N251        N  0.55551446  0.10529510  0.22756218    -0.34960
C252        C  0.54309533  0.11542639  0.21853424     0.01240
C253        C  0.52630998  0.10665020  0.21923848     0.07260
C254        C  0.52972653  0.09067463  0.22932861    -0.05840
H255        H  0.54610463  0.12863547  0.21245663     0.07930
H256        H  0.51987937  0.08018317  0.23301356     0.09130
Cu257      Cu  0.58210847  0.11335161  0.23192451     0.44170
Cu258      Cu  0.56245737  0.07060995  0.24987969     0.41990
Cu259      Cu  0.60788672  0.08783936  0.26303945     0.43880
N260        N  0.60734241  0.12189425  0.24089567    -0.34490
N261        N  0.61697286  0.11235663  0.25283550    -0.28750
C262        C  0.63217580  0.12173396  0.25729915    -0.04850
C263        C  0.63201156  0.13815259  0.24772356     0.07370
C264        C  0.61602391  0.13773694  0.23740526     0.01170
H265        H  0.64227493  0.11701226  0.26710492     0.08820
H266        H  0.61060105  0.14840954  0.22863617     0.07900
N267        N  0.59803461  0.06259084  0.27039073    -0.35940
N268        N  0.58203927  0.05550608  0.26543073    -0.28120
C269        C  0.58144467  0.03800403  0.27163313    -0.03360
C270        C  0.59777493  0.03418608  0.28100476     0.05250
C271        C  0.60779425  0.05019772  0.27983415     0.03340
H272        H  0.57009537  0.02869057  0.26932008     0.08450
H273        H  0.62164561  0.05252686  0.28473773     0.07280
C274        C  0.65687601  0.18279022  0.23845488     0.03310
C275        C  0.66963414  0.18299496  0.25276529    -0.12840
C276        C  0.67063093  0.16829744  0.26496235     0.00810
C277        C  0.65822436  0.15373224  0.26347799    -0.11360
C278        C  0.64517617  0.15345384  0.24930076     0.03310
C279        C  0.64482039  0.16792909  0.23661300    -0.10780
H280        H  0.67915418  0.19437504  0.25411794     0.08900
H281        H  0.65899382  0.14264304  0.27331521     0.06430
H282        H  0.63553513  0.16753143  0.22501959     0.06280
N283        N  0.72754554  0.40995361  0.05504290    -0.27100
N284        N  0.72224196  0.39421922  0.06238288    -0.34960
C285        C  0.71276183  0.38433735  0.05009324     0.01240
C286        C  0.71189317  0.39401876  0.03388703     0.07260
C287        C  0.72149594  0.41027136  0.03748442    -0.05840
H288        H  0.70754592  0.37066909  0.05267872     0.07930
H289        H  0.72404287  0.42139608  0.02800313     0.09130
Cu290      Cu  0.72889506  0.38502349  0.08799924     0.44170
Cu291      Cu  0.74331168  0.42957475  0.06991688     0.41990
Cu292      Cu  0.76003163  0.41080128  0.11357457     0.43880
N293        N  0.73812120  0.37656403  0.11305412    -0.34490
N294        N  0.75004134  0.38617900  0.12266477    -0.28750
C295        C  0.75325463  0.37763026  0.13861823    -0.04850
C296        C  0.74278213  0.36174348  0.13899941     0.07370
C297        C  0.73338623  0.36151638  0.12248008     0.01170
H298        H  0.76223955  0.38289467  0.14921218     0.08820
H299        H  0.72380101  0.35128708  0.11755592     0.07900
N300        N  0.76554804  0.43685364  0.10463420    -0.35940
N301        N  0.75930287  0.44443152  0.08936565    -0.28120
C302        C  0.76455085  0.46225971  0.08937491    -0.03360
C303        C  0.77460772  0.46582144  0.10535018     0.05250
C304        C  0.77483390  0.44928481  0.11452934     0.03340
H305        H  0.76109683  0.47195170  0.07868877     0.08450
H306        H  0.78059431  0.44654526  0.12793986     0.07280
C307        C  0.72705258  0.32157260  0.16776989     0.03310
C308        C  0.74023577  0.32154370  0.18167736    -0.12840
C309        C  0.75395084  0.33494074  0.18195164     0.00810
C310        C  0.75472951  0.34812425  0.16803825    -0.11360
C311        C  0.74168431  0.34811281  0.15387538     0.03310
C312        C  0.72777340  0.33477352  0.15389289    -0.10780
H313        H  0.73993670  0.31098440  0.19214861     0.08900
H314        H  0.76572281  0.35813834  0.16823114     0.06430
H315        H  0.71754469  0.33440260  0.14311687     0.06280
N316        N  0.58366161  0.26510247  0.05577984    -0.27100
N317        N  0.59986633  0.26968857  0.06262176    -0.34960
C318        C  0.60965785  0.27895649  0.05011067     0.01240
C319        C  0.59942121  0.28039655  0.03427294     0.07260
C320        C  0.58294207  0.27137105  0.03831388    -0.05840
H321        H  0.62362738  0.28361522  0.05224987     0.07930
H322        H  0.57138348  0.26938817  0.02919380     0.09130
Cu323      Cu  0.60972314  0.26217789  0.08777568     0.44170
Cu324      Cu  0.56396009  0.25004787  0.07123603     0.41990
Cu325      Cu  0.58299054  0.23300057  0.11479241     0.43880
N326        N  0.61882237  0.25218297  0.11232664    -0.34490
N327        N  0.60886322  0.24103372  0.12248442    -0.28750
C328        C  0.61793409  0.23738958  0.13807463    -0.04850
C329        C  0.63448939  0.24679015  0.13764308     0.07370
C330        C  0.63458519  0.25598388  0.12103203     0.01170
H331        H  0.61248274  0.22911211  0.14912553     0.08820
H332        H  0.64509522  0.26501863  0.11569232     0.07900
N333        N  0.55643393  0.22863667  0.10643677    -0.35940
N334        N  0.54890828  0.23483462  0.09111617    -0.28120
C335        C  0.53097469  0.22989910  0.09119247    -0.03360
C336        C  0.52725175  0.22010254  0.10726807     0.05250
C337        C  0.54382747  0.21970559  0.11645090     0.03340
H338        H  0.52136833  0.23322033  0.08037400     0.08450
H339        H  0.54656424  0.21381491  0.12979987     0.07280
C340        C  0.66101498  0.23662061  0.18108954     0.03310
C341        C  0.67377414  0.25098945  0.18111005    -0.12840
C342        C  0.67418165  0.26347382  0.16657637     0.00810
C343        C  0.66143159  0.26206214  0.15233034    -0.11360
C344        C  0.64834488  0.24793458  0.15233154     0.03310
C345        C  0.64833055  0.23515984  0.16670231    -0.10780
H346        H  0.68330239  0.25255281  0.19243981     0.08900
H347        H  0.66171117  0.27215437  0.14144514     0.06430
H348        H  0.63855606  0.22395105  0.16674766     0.06280
C349        C  0.82416658  0.26378453  0.31902995     0.03310
C350        C  0.81044779  0.25036450  0.31904834    -0.12840
C351        C  0.81050462  0.23661844  0.33238878     0.00810
C352        C  0.82412020  0.23648420  0.34593967    -0.11360
C353        C  0.83808495  0.24975021  0.34590191     0.03310
C354        C  0.83810634  0.26328774  0.33223899    -0.10780
H355        H  0.79975999  0.25059927  0.30867939     0.08900
H356        H  0.82381477  0.22587820  0.35632458     0.06430
H357        H  0.84877569  0.27363807  0.33187183     0.06280
N358        N  0.93604869  0.26541474  0.40927279    -0.27100
N359        N  0.92884285  0.27073728  0.39348325    -0.34960
C360        C  0.94137608  0.27994029  0.38364156     0.01240
C361        C  0.95758009  0.28060314  0.39342511     0.07260
C362        C  0.95373682  0.27116029  0.40967461    -0.05840
H363        H  0.93894918  0.28512985  0.36994337     0.07930
H364        H  0.96312680  0.26854257  0.42087015     0.09130
Cu365      Cu  0.90304233  0.26446906  0.38419003     0.44170
Cu366      Cu  0.92085935  0.25012507  0.42894431     0.41990
Cu367      Cu  0.87632915  0.23495146  0.41080037     0.43880
N368        N  0.87794872  0.25515996  0.37557679    -0.34490
N369        N  0.86795301  0.24384909  0.38551648    -0.28750
C370        C  0.85229992  0.24007459  0.37657771    -0.04850
C371        C  0.85250807  0.24952353  0.36009230     0.07370
C372        C  0.86904599  0.25894559  0.35993646     0.01170
H373        H  0.84152596  0.23135189  0.38192204     0.08820
H374        H  0.87436943  0.26781734  0.34929579     0.07900
N375        N  0.88539667  0.22927996  0.43678579    -0.35940
N376        N  0.90110369  0.23484585  0.44406032    -0.28120
C377        C  0.90140297  0.22931116  0.46177773    -0.03360
C378        C  0.88516664  0.21977022  0.46559133     0.05250
C379        C  0.87550124  0.22014906  0.44932048     0.03340
H380        H  0.91254966  0.23210176  0.47119518     0.08450
H381        H  0.86187240  0.21474230  0.44680218     0.07280
C382        C  0.82466058  0.31885196  0.26287708     0.03310
C383        C  0.81070385  0.31939361  0.24973249    -0.12840
C384        C  0.81071565  0.33307008  0.23634129     0.00810
C385        C  0.82433324  0.34661496  0.23645134    -0.11360
C386        C  0.83826702  0.34636359  0.24973486     0.03310
C387        C  0.83833643  0.33236744  0.26294130    -0.10780
H388        H  0.79991058  0.30912372  0.24985030     0.08900
H389        H  0.82400594  0.35719339  0.22604126     0.06430
H390        H  0.84887871  0.33191883  0.27340835     0.06280
N391        N  0.90187804  0.44416768  0.23447714    -0.27100
N392        N  0.88623242  0.43686905  0.22877311    -0.34960
C393        C  0.87645782  0.44937095  0.21947718     0.01240
C394        C  0.88612854  0.46564957  0.21916293     0.07260
C395        C  0.90224421  0.46187836  0.22890342    -0.05840
H396        H  0.86283962  0.44688214  0.21402927     0.07930
H397        H  0.91330658  0.47134547  0.23187707     0.09130
Cu398      Cu  0.87697006  0.41101096  0.23479612     0.44170
Cu399      Cu  0.92137173  0.42908300  0.25008174     0.41990
Cu400      Cu  0.90326978  0.38450247  0.26487305     0.43880
N401        N  0.86829998  0.38593910  0.24407033    -0.34490
N402        N  0.87812880  0.37602896  0.25554325    -0.28750
C403        C  0.86909803  0.36045375  0.25935675    -0.04850
C404        C  0.85265029  0.36062220  0.24978471     0.07370
C405        C  0.85263022  0.37705689  0.24023159     0.01170
H406        H  0.87431304  0.34981188  0.26828378     0.08820
H407        H  0.84202610  0.38236703  0.23129559     0.07900
N408        N  0.92911261  0.39375615  0.27107476    -0.35940
N409        N  0.93638526  0.40947129  0.26559361    -0.28120
C410        C  0.95406896  0.40986937  0.27132266    -0.03360
C411        C  0.95785552  0.39369810  0.28091714     0.05250
C412        C  0.94161155  0.38396059  0.28037100     0.03340
H413        H  0.96349977  0.42100932  0.26857661     0.08450
H414        H  0.93913753  0.37031825  0.28569713     0.07280
C415        C  0.99224591  0.69139268  0.36579029     0.03310
C416        C  0.97564505  0.69740868  0.37368261    -0.12840
C417        C  0.97549001  0.71051129  0.38800682     0.00810
C418        C  0.99224730  0.71717023  0.39484265    -0.11360
C419        C  0.00898817  0.71146368  0.38722356     0.03310
C420        C  0.00883704  0.69851862  0.37277301    -0.10780
H421        H  0.96282285  0.69172304  0.36873848     0.08900
H422        H  0.99223126  0.72751582  0.40549521     0.06430
H423        H  0.02166805  0.69395432  0.36682836     0.06280
C424        C  0.99310622  0.63431933  0.30882670     0.03310
C425        C  0.00954608  0.62789642  0.30092579    -0.12840
C426        C  0.00949443  0.61366168  0.28773817     0.00810
C427        C  0.99265480  0.60606998  0.28218376    -0.11360
C428        C  0.97599771  0.61279735  0.28915992     0.03310
C429        C  0.97638159  0.62684019  0.30256100    -0.10780
H430        H  0.02241906  0.63402236  0.30516031     0.08900
H431        H  0.99247539  0.59555616  0.27169864     0.06430
H432        H  0.96364993  0.63186435  0.30834088     0.06280
C433        C  0.68381852  0.99983751  0.36530437     0.03310
C434        C  0.69032074  0.01644398  0.37276887    -0.12840
C435        C  0.70356707  0.01664795  0.38698393     0.00810
C436        C  0.71004821  0.99991060  0.39397468    -0.11360
C437        C  0.70391938  0.98314057  0.38670039     0.03310
C438        C  0.69070091  0.98326085  0.37245218    -0.10780
H439        H  0.68503962  0.02922944  0.36737409     0.08900
H440        H  0.72050529  0.99994918  0.40454013     0.06430
H441        H  0.68549882  0.97044128  0.36703694     0.06280
C442        C  0.62575711  0.00006594  0.30933920     0.03310
C443        C  0.61860378  0.01658625  0.30232110    -0.12840
C444        C  0.60435038  0.01661913  0.28912153     0.00810
C445        C  0.59726444  0.99980554  0.28291800    -0.11360
C446        C  0.60456937  0.98310848  0.28918630     0.03310
C447        C  0.61881942  0.98339967  0.30241789    -0.10780
H448        H  0.62422317  0.02944531  0.30720931     0.08900
H449        H  0.58667730  0.99973260  0.27248368     0.06430
H450        H  0.62439565  0.97065857  0.30761230     0.06280
N451        N  0.54872157  0.76609503  0.09023477    -0.27100
N452        N  0.55612714  0.77180933  0.10579902    -0.34960
C453        C  0.54365773  0.78101306  0.11568798     0.01240
C454        C  0.52728439  0.78125976  0.10617786     0.07260
C455        C  0.53097070  0.77159001  0.09002874    -0.05840
H456        H  0.54622409  0.78638298  0.12929382     0.07930
H457        H  0.52140906  0.76855303  0.07907998     0.09130
Cu458      Cu  0.58199241  0.76574586  0.11493760     0.44170
Cu459      Cu  0.56364290  0.75042496  0.07069465     0.41990
Cu460      Cu  0.60775589  0.73475875  0.08912359     0.43880
N461        N  0.60685490  0.75610235  0.12371212    -0.34490
N462        N  0.61648878  0.74425527  0.11407836    -0.28750
C463        C  0.63204389  0.74032381  0.12309293    -0.04850
C464        C  0.63214146  0.75020691  0.13933113     0.07370
C465        C  0.61587989  0.76006092  0.13924219     0.01170
H466        H  0.64250605  0.73112154  0.11798430     0.08820
H467        H  0.61079430  0.76932092  0.14965658     0.07900
N468        N  0.59866724  0.72888633  0.06318317    -0.35940
N469        N  0.58314281  0.73471012  0.05575772    -0.28120
C470        C  0.58292543  0.72921576  0.03802382    -0.03360
C471        C  0.59902280  0.71942420  0.03435951     0.05250
C472        C  0.60851611  0.71961446  0.05073763     0.03340
H473        H  0.57198061  0.73228831  0.02846941     0.08450
H474        H  0.62206908  0.71409974  0.05335335     0.07280
C475        C  0.67418869  0.73720725  0.16686055     0.03310
C476        C  0.66046521  0.73704401  0.15343786    -0.12840
C477        C  0.64650558  0.75028148  0.15359730     0.00810
C478        C  0.64637671  0.76355111  0.16753317    -0.11360
C479        C  0.65992175  0.76349663  0.18115424     0.03310
C480        C  0.67389948  0.75041290  0.18071315    -0.10780
H481        H  0.66075754  0.72648464  0.14300559     0.08900
H482        H  0.63582700  0.77399416  0.16793047     0.06430
H483        H  0.68447780  0.75043985  0.19119402     0.06280
N484        N  0.75837952  0.55613683  0.09060094    -0.27100
N485        N  0.76388553  0.56342039  0.10629299    -0.34960
C486        C  0.77302686  0.55091834  0.11620357     0.01240
C487        C  0.77346741  0.53465453  0.10656333     0.07260
C488        C  0.76396567  0.53843870  0.09032137    -0.05840
H489        H  0.77837053  0.55344438  0.12983062     0.07930
H490        H  0.76122220  0.52901340  0.07919431     0.09130
Cu491      Cu  0.75799581  0.58930563  0.11537067     0.44170
Cu492      Cu  0.74305892  0.57120815  0.07088361     0.41990
Cu493      Cu  0.72827134  0.61578160  0.08888337     0.43880
N494        N  0.74871499  0.61432285  0.12398011    -0.34490
N495        N  0.73732875  0.62424685  0.11406906    -0.28750
C496        C  0.73330334  0.63971622  0.12313892    -0.04850
C497        C  0.74264586  0.63944440  0.13969963     0.07370
C498        C  0.75229289  0.62307812  0.13974301     0.01170
H499        H  0.72433223  0.65032055  0.11790960     0.08820
H500        H  0.76104033  0.61769160  0.15045692     0.07900
N501        N  0.72220613  0.60655573  0.06306363    -0.35940
N502        N  0.72766553  0.59085053  0.05579745    -0.28120
C503        C  0.72192707  0.59049172  0.03813717    -0.03360
C504        C  0.71234765  0.60667898  0.03437757     0.05250
C505        C  0.71292457  0.61637998  0.05059955     0.03340
H506        H  0.72461324  0.57935165  0.02871789     0.08450
H507        H  0.70759133  0.63000514  0.05311094     0.07280
C508        C  0.75498059  0.66653383  0.18218686     0.03310
C509        C  0.74165692  0.68028596  0.18185692    -0.12840
C510        C  0.72845256  0.68049500  0.16797519     0.00810
C511        C  0.72882679  0.66722270  0.15413908    -0.11360
C512        C  0.74226287  0.65346106  0.15424977     0.03310
C513        C  0.75534825  0.65322513  0.16837454    -0.10780
H514        H  0.74156424  0.69080478  0.19237421     0.08900
H515        H  0.71853533  0.66770200  0.14342620     0.06430
H516        H  0.76599506  0.64287455  0.16866813     0.06280
C517        C  0.72898988  0.83229478  0.31900211     0.03310
C518        C  0.72912328  0.84598619  0.33245006    -0.12840
C519        C  0.74263236  0.84603357  0.34618127     0.00810
C520        C  0.75598404  0.83219234  0.34625438    -0.11360
C521        C  0.75578724  0.81850298  0.33283516     0.03310
C522        C  0.74215493  0.81838423  0.31938840    -0.10780
H523        H  0.71862677  0.85648760  0.33211757     0.08900
H524        H  0.76671756  0.83204156  0.35654062     0.06430
H525        H  0.74193440  0.80762694  0.30911531     0.06280
N526        N  0.75819634  0.90946898  0.44386147    -0.27100
N527        N  0.76382794  0.89382367  0.43659580    -0.34960
C528        C  0.77303691  0.88400715  0.44913179     0.01240
C529        C  0.77338529  0.89365408  0.46539869     0.07260
C530        C  0.76374991  0.90979904  0.46158103    -0.05840
H531        H  0.77845564  0.87040981  0.44664578     0.07930
H532        H  0.76086970  0.92088036  0.47101068     0.09130
Cu533      Cu  0.75796060  0.88466454  0.41068453     0.44170
Cu534      Cu  0.74275273  0.92905776  0.42872494     0.41990
Cu535      Cu  0.72828792  0.91117318  0.38400373     0.43880
N536        N  0.74877572  0.87610614  0.38555336    -0.34490
N537        N  0.73743018  0.88602316  0.37558142    -0.28750
C538        C  0.73349988  0.87700643  0.36004428    -0.04850
C539        C  0.74286269  0.86047996  0.36030838     0.07370
C540        C  0.75242514  0.86039276  0.37674344     0.01170
H541        H  0.72460456  0.88225624  0.34938308     0.08820
H542        H  0.76117684  0.84968094  0.38212293     0.07900
N543        N  0.72200640  0.93691746  0.39326920    -0.35940
N544        N  0.72734559  0.94413080  0.40905312    -0.28120
C545        C  0.72150806  0.96174905  0.40947366    -0.03360
C546        C  0.71198471  0.96553826  0.39324720     0.05250
C547        C  0.71270161  0.94937788  0.38345171     0.03340
H548        H  0.72410585  0.97112729  0.42067510     0.08450
H549        H  0.70745746  0.94692964  0.36976968     0.07280
C550        C  0.67270002  0.83241461  0.26403659     0.03310
C551        C  0.67292074  0.81911218  0.25025813    -0.12840
C552        C  0.65954409  0.81927784  0.23652288     0.00810
C553        C  0.64574206  0.83260683  0.23673930    -0.11360
C554        C  0.64557853  0.84621447  0.25032936     0.03310
C555        C  0.65923713  0.84609188  0.26390414    -0.10780
H556        H  0.68349993  0.80864675  0.25021877     0.08900
H557        H  0.63533276  0.83237150  0.22613520     0.06430
H558        H  0.65943713  0.85646168  0.27452555     0.06280
N559        N  0.54780917  0.90942053  0.23443779    -0.27100
N560        N  0.55517091  0.89388688  0.22862900    -0.34960
C561        C  0.54263888  0.88405024  0.21938914     0.01240
C562        C  0.52627604  0.89356620  0.21922856     0.07260
C563        C  0.53003626  0.90965812  0.22898197    -0.05840
H564        H  0.54516204  0.87048397  0.21390621     0.07930
H565        H  0.52051519  0.92060544  0.23207421     0.09130
Cu566      Cu  0.58110519  0.88479325  0.23460001     0.44170
Cu567      Cu  0.56282671  0.92891642  0.25012606     0.41990
Cu568      Cu  0.60718380  0.91086185  0.26541161     0.43880
N569        N  0.60604356  0.87613119  0.24425224    -0.34490
N570        N  0.61574864  0.88583581  0.25602579    -0.28750
C571        C  0.63126429  0.87680703  0.26004992    -0.04850
C572        C  0.63127243  0.86049907  0.25029734     0.07370
C573        C  0.61500534  0.86054843  0.24042135     0.01170
H574        H  0.64176601  0.88194622  0.26921919     0.08820
H575        H  0.60986507  0.85005082  0.23126410     0.07900
N576        N  0.59798162  0.93669328  0.27147907    -0.35940
N577        N  0.58232249  0.94395253  0.26581624    -0.28120
C578        C  0.58191879  0.96162078  0.27149533    -0.03360
C579        C  0.59803468  0.96542128  0.28124250     0.05250
C580        C  0.60774345  0.94919095  0.28083454     0.03340
H581        H  0.57081341  0.97103348  0.26860525     0.08450
H582        H  0.62135093  0.94671918  0.28629918     0.07280
C583        C  0.82546638  0.73635173  0.31983269     0.03310
C584        C  0.83990259  0.73765788  0.33245847    -0.12840
C585        C  0.83993784  0.75147970  0.34586225     0.00810
C586        C  0.82556465  0.76425434  0.34613214    -0.11360
C587        C  0.81123564  0.76304077  0.33342874     0.03310
C588        C  0.81120045  0.74914069  0.32027706    -0.10780
H589        H  0.85097219  0.72778817  0.33175675     0.08900
H590        H  0.82542719  0.77527991  0.35607756     0.06430
H591        H  0.80016888  0.74838588  0.31029807     0.06280
N592        N  0.90216116  0.76596449  0.44438085    -0.27100
N593        N  0.88701982  0.77241096  0.43667819    -0.34960
C594        C  0.87713206  0.78173175  0.44906939     0.01240
C595        C  0.88620725  0.78132778  0.46568689     0.07260
C596        C  0.90209306  0.77112434  0.46221204    -0.05840
H597        H  0.86385671  0.78776755  0.44620298     0.07930
H598        H  0.91272656  0.76756832  0.47194755     0.09130
Cu599      Cu  0.87853384  0.76750174  0.41030133     0.44170
Cu600      Cu  0.92163110  0.74990770  0.42974136     0.41990
Cu601      Cu  0.90417411  0.73615148  0.38480780     0.43880
N602        N  0.87030613  0.75860494  0.38492267    -0.34490
N603        N  0.87992943  0.74664062  0.37542507    -0.28750
C604        C  0.87096730  0.74256567  0.35989550    -0.04850
C605        C  0.85472550  0.75243494  0.35965978     0.07370
C606        C  0.85480352  0.76249979  0.37579701     0.01170
H607        H  0.87590291  0.73290418  0.34977693     0.08820
H608        H  0.84417890  0.77149998  0.38094098     0.07900
N609        N  0.92937095  0.72870335  0.39462927    -0.35940
N610        N  0.93657296  0.73392671  0.41045437    -0.28120
C611        C  0.95411199  0.72779784  0.41100315    -0.03360
C612        C  0.95782675  0.71820184  0.39481351     0.05250
C613        C  0.94172063  0.71916164  0.38492470     0.03340
H614        H  0.96355278  0.73043092  0.42215913     0.08450
H615        H  0.93935218  0.71417865  0.37113489     0.07280
C616        C  0.82552101  0.68142590  0.26344024     0.03310
C617        C  0.81135781  0.68070757  0.25050864    -0.12840
C618        C  0.81142768  0.66720108  0.23694177     0.00810
C619        C  0.82517072  0.65382487  0.23682478    -0.11360
C620        C  0.83924758  0.65415911  0.24995098     0.03310
C621        C  0.83937126  0.66811607  0.26319542    -0.10780
H622        H  0.80040733  0.69077134  0.25085676     0.08900
H623        H  0.82484061  0.64332850  0.22632998     0.06430
H624        H  0.85009541  0.66868859  0.27346870     0.06280
N625        N  0.93660201  0.59030220  0.26641193    -0.27100
N626        N  0.92937807  0.60596511  0.27205256    -0.34960
C627        C  0.94194472  0.61572085  0.28132521     0.01240
C628        C  0.95819268  0.60603110  0.28166630     0.07260
C629        C  0.95433650  0.58991612  0.27199077    -0.05840
H630        H  0.93956185  0.62937988  0.28664087     0.07930
H631        H  0.96378393  0.57887609  0.26899973     0.09130
Cu632      Cu  0.90368299  0.61544848  0.26571146     0.44170
Cu633      Cu  0.92147658  0.57084087  0.25076001     0.41990
Cu634      Cu  0.87757227  0.58944634  0.23497301     0.43880
N635        N  0.87892224  0.62434569  0.25584614    -0.34490
N636        N  0.86919316  0.61462834  0.24410761    -0.28750
C637        C  0.85367550  0.62365247  0.24010662    -0.04850
C638        C  0.85368050  0.63998360  0.24983406     0.07370
C639        C  0.86998044  0.63994638  0.25966478     0.01170
H640        H  0.84312413  0.61844028  0.23103325     0.08820
H641        H  0.87510195  0.65040006  0.26888416     0.07900
N642        N  0.88630817  0.56335584  0.22934534    -0.35940
N643        N  0.90181358  0.55589826  0.23516566    -0.28120
C644        C  0.90193026  0.53815418  0.22969993    -0.03360
C645        C  0.88577757  0.53450570  0.21994477     0.05250
C646        C  0.87635755  0.55091220  0.22011849     0.03340
H647        H  0.91288417  0.52860065  0.23270621     0.08450
H648        H  0.86284010  0.55358053  0.21453005     0.07280
C649        C  0.68340115  0.36598728  0.99988438     0.03310
C650        C  0.69056008  0.37296497  0.01639742    -0.12840
C651        C  0.70370022  0.38731117  0.01639093     0.00810
C652        C  0.70965402  0.39455290  0.99956160    -0.11360
C653        C  0.70306716  0.38748093  0.98288569     0.03310
C654        C  0.68979708  0.37328468  0.98320967    -0.10780
H655        H  0.68562621  0.36734285  0.02922351     0.08900
H656        H  0.72008096  0.40515250  0.99943331     0.06430
H657        H  0.68431697  0.36786712  0.97050734     0.06280
C658        C  0.62694345  0.30882290  0.99990637     0.03310
C659        C  0.62018250  0.30167422  0.01649959    -0.12840
C660        C  0.60581678  0.28857606  0.01667553     0.00810
C661        C  0.59831975  0.28262058  0.99994188    -0.11360
C662        C  0.60513741  0.28922485  0.98315778     0.03310
C663        C  0.61931821  0.30253838  0.98332306    -0.10780
H664        H  0.62602358  0.30654553  0.02926606     0.08900
H665        H  0.58771443  0.27219735  0.99998687     0.06430
H666        H  0.62454680  0.30806458  0.97057484     0.06280
C667        C  0.99192916  0.36556650  0.69146066     0.03310
C668        C  0.00862224  0.37310904  0.69772396    -0.12840
C669        C  0.00895380  0.38724982  0.71103842     0.00810
C670        C  0.99224282  0.39392410  0.71796339    -0.11360
C671        C  0.97541443  0.38636869  0.71230033     0.03310
C672        C  0.97544651  0.37207447  0.69917783    -0.10780
H673        H  0.02134250  0.36807377  0.69194380     0.08900
H674        H  0.99235517  0.40453172  0.72834298     0.06430
H675        H  0.96261597  0.36597154  0.69480021     0.06280
C676        C  0.99271129  0.30790159  0.63511419     0.03310
C677        C  0.97614309  0.30091368  0.62793879    -0.12840
C678        C  0.97603489  0.28784390  0.61358265     0.00810
C679        C  0.99285926  0.28186249  0.60630580    -0.11360
C680        C  0.00960999  0.28850050  0.61325314     0.03310
C681        C  0.00935216  0.30170467  0.62747835    -0.10780
H682        H  0.96330597  0.30575729  0.63363089     0.08900
H683        H  0.99292566  0.27151316  0.59566578     0.06430
H684        H  0.02211779  0.30743388  0.63250323     0.06280
N685        N  0.72645273  0.05608544  0.59021393    -0.27100
N686        N  0.72086093  0.06335661  0.60586613    -0.34960
C687        C  0.71158846  0.05085253  0.61566546     0.01240
C688        C  0.71116786  0.03459699  0.60600414     0.07260
C689        C  0.72081839  0.03838465  0.58986335    -0.05840
H690        H  0.70625015  0.05332256  0.62929735     0.07930
H691        H  0.72369966  0.02893548  0.57880086     0.09130
Cu692      Cu  0.72710608  0.08910954  0.61518634     0.44170
Cu693      Cu  0.74203735  0.07118079  0.57072512     0.41990
Cu694      Cu  0.75778859  0.11525265  0.58926619     0.43880
N695        N  0.73694410  0.11383648  0.62415468    -0.34490
N696        N  0.74869784  0.12359314  0.61448976    -0.28750
C697        C  0.75284360  0.13897745  0.62367767    -0.04850
C698        C  0.74319387  0.13883412  0.64005155     0.07370
C699        C  0.73324622  0.12262236  0.63986777     0.01170
H700        H  0.76199582  0.14951171  0.61858935     0.08820
H701        H  0.72410257  0.11742028  0.65034067     0.07900
N702        N  0.76345012  0.10633573  0.56323090    -0.35940
N703        N  0.75761741  0.09082033  0.55580583    -0.28120
C704        C  0.76305162  0.09065293  0.53805967    -0.03360
C705        C  0.77281982  0.10676751  0.53438279     0.05250
C706        C  0.77267734  0.11622837  0.55076305     0.03340
H707        H  0.75998493  0.07970984  0.52851694     0.08450
H708        H  0.77823679  0.12976024  0.55337383     0.07280
C709        C  0.75686090  0.18024945  0.66813055     0.03310
C710        C  0.75684324  0.16671291  0.65455003    -0.12840
C711        C  0.74329488  0.15302292  0.65445015     0.00810
C712        C  0.72976008  0.15311014  0.66813495    -0.11360
C713        C  0.72958592  0.16687927  0.68150375     0.03310
C714        C  0.74318620  0.18039938  0.68152982    -0.10780
H715        H  0.76749691  0.16693229  0.64420142     0.08900
H716        H  0.71916519  0.14268167  0.66839753     0.06430
H717        H  0.74311862  0.19102845  0.69193840     0.06280
N718        N  0.54878876  0.09007349  0.76641918    -0.27100
N719        N  0.55614285  0.10570870  0.77202116    -0.34960
C720        C  0.54372812  0.11548123  0.78142054     0.01240
C721        C  0.52743677  0.10583189  0.78189404     0.07260
C722        C  0.53111166  0.08971842  0.77215834    -0.05840
H723        H  0.54621955  0.12914961  0.78668110     0.07930
H724        H  0.52156499  0.07873116  0.76918522     0.09130
Cu725      Cu  0.58175144  0.11517563  0.76535269     0.44170
Cu726      Cu  0.56368243  0.07071112  0.75049536     0.41990
Cu727      Cu  0.60744699  0.08954879  0.73411976     0.43880
N728        N  0.60638070  0.12422277  0.75533315    -0.34490
N729        N  0.61600958  0.11465237  0.74343127    -0.28750
C730        C  0.63153298  0.12373393  0.73948627    -0.04850
C731        C  0.63162155  0.13994823  0.74942383     0.07370
C732        C  0.61537061  0.13977517  0.75930733     0.01170
H733        H  0.64203675  0.11862642  0.73032804     0.08820
H734        H  0.61033132  0.15007117  0.76872365     0.07900
N735        N  0.59849433  0.06349249  0.72845501    -0.35940
N736        N  0.58311294  0.05594630  0.73452239    -0.28120
C737        C  0.58296388  0.03819281  0.72908064    -0.03360
C738        C  0.59894831  0.03463502  0.71906542     0.05250
C739        C  0.60831190  0.05109814  0.71907411     0.03340
H740        H  0.57214573  0.02854994  0.73235224     0.08450
H741        H  0.62176957  0.05380482  0.71336089     0.07280
C742        C  0.65969526  0.18138526  0.76348615     0.03310
C743        C  0.67408036  0.18065269  0.75082924    -0.12840
C744        C  0.67442476  0.16688907  0.73751368     0.00810
C745        C  0.66044560  0.15372341  0.73694362    -0.11360
C746        C  0.64613599  0.15408759  0.74979661     0.03310
C747        C  0.64586321  0.16803639  0.76304762    -0.10780
H748        H  0.68491468  0.19086476  0.75123552     0.08900
H749        H  0.66082658  0.14331152  0.72636763     0.06430
H750        H  0.63498405  0.16863493  0.77313789     0.06280
C751        C  0.82435675  0.31901718  0.73663893     0.03310
C752        C  0.83745929  0.33304807  0.73600596    -0.12840
C753        C  0.83766115  0.34679044  0.74945107     0.00810
C754        C  0.82454818  0.34634027  0.76351812    -0.11360
C755        C  0.81170834  0.33207860  0.76437572     0.03310
C756        C  0.81166085  0.31841096  0.75096450    -0.10780
H757        H  0.84722133  0.33333307  0.72481011     0.08900
H758        H  0.82430647  0.35691144  0.77394118     0.06430
H759        H  0.80173366  0.30732480  0.75166988     0.06280
N760        N  0.90181441  0.44403751  0.76600450    -0.27100
N761        N  0.88577185  0.43706782  0.77094986    -0.34960
C762        C  0.87604920  0.44959891  0.78022753     0.01240
C763        C  0.88617742  0.46555133  0.78132761     0.07260
C764        C  0.90250068  0.46157725  0.77206279    -0.05840
H765        H  0.86219432  0.44736845  0.78515234     0.07930
H766        H  0.91393530  0.47078421  0.76977334     0.09130
Cu767      Cu  0.87596878  0.41165261  0.76410200     0.44170
Cu768      Cu  0.92143922  0.42877097  0.75080546     0.41990
Cu769      Cu  0.90262117  0.38491086  0.73481812     0.43880
N770        N  0.86708338  0.38682748  0.75448034    -0.34490
N771        N  0.87705654  0.37683531  0.74322236    -0.28750
C772        C  0.86810691  0.36120653  0.73945537    -0.04850
C773        C  0.85159817  0.36142177  0.74887439     0.07370
C774        C  0.85140891  0.37793617  0.75825487     0.01170
H775        H  0.87354045  0.35034479  0.73093239     0.08820
H776        H  0.84080121  0.38315943  0.76722514     0.07900
N777        N  0.92892114  0.39347718  0.72975123    -0.35940
N778        N  0.93641471  0.40897174  0.73555314    -0.28120
C779        C  0.95420417  0.40906612  0.73017566    -0.03360
C780        C  0.95784515  0.39290498  0.72050668     0.05250
C781        C  0.94139009  0.38350049  0.72064714     0.03340
H782        H  0.96375761  0.42006436  0.73308583     0.08450
H783        H  0.93864042  0.37004434  0.71499333     0.07280
C784        C  0.82510724  0.26362074  0.68089451     0.03310
C785        C  0.81160390  0.25000230  0.68084922    -0.12840
C786        C  0.81127660  0.23688046  0.66692984     0.00810
C787        C  0.82461359  0.23714827  0.65316060    -0.11360
C788        C  0.83813369  0.25087535  0.65297368     0.03310
C789        C  0.83814365  0.26423488  0.66681593    -0.10780
H790        H  0.80142531  0.24953184  0.69169820     0.08900
H791        H  0.82435048  0.22659362  0.64272145     0.06430
H792        H  0.84813278  0.27524723  0.66668532     0.06280
N793        N  0.93685575  0.26491987  0.59069960    -0.27100
N794        N  0.92938609  0.27077215  0.60616501    -0.34960
C795        C  0.94189961  0.27985339  0.61615883     0.01240
C796        C  0.95837275  0.27992138  0.60682005     0.07260
C797        C  0.95468735  0.27023267  0.59066259    -0.05840
H798        H  0.93920053  0.28544866  0.62963904     0.07930
H799        H  0.96426596  0.26719534  0.57974753     0.09130
Cu800      Cu  0.90314712  0.26554633  0.61485563     0.44170
Cu801      Cu  0.92178874  0.24954740  0.57094455     0.41990
Cu802      Cu  0.87689679  0.23529840  0.58869116     0.43880
N803        N  0.87775263  0.25678724  0.62315120    -0.34490
N804        N  0.86793854  0.24518507  0.61335573    -0.28750
C805        C  0.85225498  0.24143109  0.62221508    -0.04850
C806        C  0.85226513  0.25116597  0.63852699     0.07370
C807        C  0.86869948  0.26077426  0.63864349     0.01170
H808        H  0.84173468  0.23228649  0.61706537     0.08820
H809        H  0.87397591  0.26966644  0.64929973     0.07900
N810        N  0.88630797  0.22876056  0.56308051    -0.35940
N811        N  0.90208506  0.23412900  0.55583542    -0.28120
C812        C  0.90239873  0.22839544  0.53817497    -0.03360
C813        C  0.88611554  0.21890091  0.53440894     0.05250
C814        C  0.87640924  0.21952412  0.55061995     0.03340
H815        H  0.91352369  0.23111412  0.52872833     0.08450
H816        H  0.86266566  0.21438038  0.55306771     0.07280
C817        C  0.72916039  0.31812585  0.83367419     0.03310
C818        C  0.74288758  0.31782732  0.82035430    -0.12840
C819        C  0.75606309  0.33175884  0.81985541     0.00810
C820        C  0.75591123  0.34559853  0.83314972    -0.11360
C821        C  0.74235141  0.34579076  0.84680539     0.03310
C822        C  0.72895246  0.33195626  0.84694339    -0.10780
H823        H  0.74310873  0.30696655  0.81019157     0.08900
H824        H  0.76639137  0.35613870  0.83271721     0.06430
H825        H  0.71814727  0.33193485  0.85713718     0.06280
N826        N  0.75744402  0.44429110  0.90917607    -0.27100
N827        N  0.76297357  0.43706360  0.89347817    -0.34960
C828        C  0.77234359  0.44956312  0.88375304     0.01240
C829        C  0.77288340  0.46575039  0.89352618     0.07260
C830        C  0.76321110  0.46193739  0.90963729    -0.05840
H831        H  0.77773832  0.44712577  0.87013776     0.07930
H832        H  0.76044739  0.47132169  0.92078535     0.09130
Cu833      Cu  0.75678426  0.41126928  0.88417961     0.44170
Cu834      Cu  0.74183096  0.42930198  0.92869375     0.41990
Cu835      Cu  0.72636020  0.38514134  0.91057023     0.43880
N836        N  0.74751029  0.38609467  0.87583089    -0.34490
N837        N  0.73590246  0.37636418  0.88569841    -0.28750
C838        C  0.73224565  0.36058185  0.87700775    -0.04850
C839        C  0.74206598  0.36041328  0.86074773     0.07370
C840        C  0.75159815  0.37687336  0.86046411     0.01170
H841        H  0.72330714  0.34999868  0.88236386     0.08820
H842        H  0.76072485  0.38193729  0.84990868     0.07900
N843        N  0.72032018  0.39430730  0.93639705    -0.35940
N844        N  0.72610322  0.40988913  0.94370823    -0.28120
C845        C  0.72055270  0.41023188  0.96140944    -0.03360
C846        C  0.71076069  0.39415301  0.96517076     0.05250
C847        C  0.71100440  0.38453253  0.94888961     0.03340
H848        H  0.72360147  0.42124440  0.97087770     0.08450
H849        H  0.70551677  0.37094888  0.94639509     0.07280
C850        C  0.67318801  0.26302411  0.83355805     0.03310
C851        C  0.67319599  0.24921575  0.82031353    -0.12840
C852        C  0.65890656  0.23642269  0.81975680     0.00810
C853        C  0.64445336  0.23764678  0.83235009    -0.11360
C854        C  0.64443524  0.25138508  0.84584436     0.03310
C855        C  0.65883969  0.26416604  0.84621942    -0.10780
H856        H  0.68425990  0.24849924  0.81038615     0.08900
H857        H  0.63337965  0.22775806  0.83157279     0.06430
H858        H  0.65902163  0.27511469  0.85624805     0.06280
N859        N  0.58221510  0.26612195  0.94421484    -0.27100
N860        N  0.59735642  0.27257052  0.93650892    -0.34960
C861        C  0.60725395  0.28194608  0.94888641     0.01240
C862        C  0.59818003  0.28156537  0.96549266     0.07260
C863        C  0.58229254  0.27132003  0.96203128    -0.05840
H864        H  0.62055997  0.28795333  0.94604275     0.07930
H865        H  0.57168359  0.26772769  0.97177618     0.09130
Cu866      Cu  0.60583644  0.26746254  0.91018406     0.44170
Cu867      Cu  0.56276574  0.24997581  0.92960794     0.41990
Cu868      Cu  0.58035261  0.23558719  0.88493095     0.43880
N869        N  0.61408970  0.25836067  0.88490417    -0.34490
N870        N  0.60456406  0.24620116  0.87550749    -0.28750
C871        C  0.61353421  0.24213154  0.85999604    -0.04850
C872        C  0.62967529  0.25221164  0.85966732     0.07370
C873        C  0.62952844  0.26238413  0.87573723     0.01170
H874        H  0.60866322  0.23234956  0.84994231     0.08820
H875        H  0.64005091  0.27158330  0.88080253     0.07900
N876        N  0.55501258  0.22843939  0.89467858    -0.35940
N877        N  0.54778356  0.23392992  0.91038416    -0.28120
C878        C  0.53014761  0.22804676  0.91085966    -0.03360
C879        C  0.52638002  0.21833200  0.89474868     0.05250
C880        C  0.54256861  0.21895638  0.88498128     0.03340
H881        H  0.52067661  0.23094241  0.92190583     0.08450
H882        H  0.54493613  0.21380681  0.87125845     0.07280
C883        C  0.68383653  0.63441817  0.00021777     0.03310
C884        C  0.69098198  0.62740482  0.01673617    -0.12840
C885        C  0.70424992  0.61324838  0.01679534     0.00810
C886        C  0.71038598  0.60612057  0.99999627    -0.11360
C887        C  0.70394854  0.61327094  0.98329467     0.03310
C888        C  0.69066803  0.62744008  0.98356310    -0.10780
H889        H  0.68609758  0.63304168  0.02956601     0.08900
H890        H  0.72085050  0.59558280  0.99992061     0.06430
H891        H  0.68535147  0.63290168  0.97081914     0.06280
C892        C  0.62756316  0.69198920  0.99999254     0.03310
C893        C  0.62007009  0.69848633  0.01655984    -0.12840
C894        C  0.60580121  0.71165656  0.01670150     0.00810
C895        C  0.59878532  0.71804267  0.99992088    -0.11360
C896        C  0.60607190  0.71186900  0.98318984     0.03310
C897        C  0.62037086  0.69874197  0.98339044    -0.10780
H898        H  0.62549336  0.69325392  0.02935470     0.08900
H899        H  0.58816812  0.72842639  0.99988138     0.06430
H900        H  0.62579961  0.69350486  0.97060944     0.06280
C901        C  0.62749202  0.00030729  0.69164970     0.03310
C902        C  0.61990269  0.01686868  0.69798438    -0.12840
C903        C  0.60578423  0.01698568  0.71132163     0.00810
C904        C  0.59895630  0.00018219  0.71788721    -0.11360
C905        C  0.60635520  0.98344909  0.71182623     0.03310
C906        C  0.62068281  0.98368476  0.69871615    -0.10780
H907        H  0.62513011  0.02964877  0.69250442     0.08900
H908        H  0.58837699  0.00013884  0.72830979     0.06430
H909        H  0.62643063  0.97094917  0.69370462     0.06280
C910        C  0.68359108  0.00011176  0.63422988     0.03310
C911        C  0.69013085  0.01671584  0.62687985    -0.12840
C912        C  0.70337449  0.01691253  0.61269508     0.00810
C913        C  0.70980114  0.00016182  0.60567290    -0.11360
C914        C  0.70368745  0.98337692  0.61295327     0.03310
C915        C  0.69059972  0.98352582  0.62731976    -0.10780
H916        H  0.68478750  0.02947642  0.63226811     0.08900
H917        H  0.72017706  0.00020646  0.59504820     0.06430
H918        H  0.68552748  0.97076599  0.63298097     0.06280
C919        C  0.99214266  0.63492519  0.69168398     0.03310
C920        C  0.97574908  0.62833864  0.69958160    -0.12840
C921        C  0.97584828  0.61397349  0.71263820     0.00810
C922        C  0.99273686  0.60653448  0.71817815    -0.11360
C923        C  0.00936318  0.61337593  0.71119964     0.03310
C924        C  0.00891100  0.62749068  0.69786811    -0.10780
H925        H  0.96287795  0.63444802  0.69540103     0.08900
H926        H  0.99297651  0.59591924  0.72854843     0.06430
H927        H  0.02161000  0.63258577  0.69206033     0.06280
C928        C  0.99254152  0.69244527  0.63505950     0.03310
C929        C  0.00910978  0.69831211  0.62698348    -0.12840
C930        C  0.00929476  0.71147993  0.61272466     0.00810
C931        C  0.99253294  0.71833166  0.60609059    -0.11360
C932        C  0.97576422  0.71264509  0.61375234     0.03310
C933        C  0.97594713  0.69968074  0.62821283    -0.10780
H934        H  0.02188559  0.69238919  0.63170962     0.08900
H935        H  0.99257421  0.72863851  0.59540945     0.06430
H936        H  0.96315096  0.69510016  0.63422687     0.06280
C937        C  0.72974609  0.83351825  0.68117573     0.03310
C938        C  0.72958681  0.84707608  0.66760728    -0.12840
C939        C  0.74326660  0.84744991  0.65407007     0.00810
C940        C  0.75723205  0.83421555  0.65446539    -0.11360
C941        C  0.75745189  0.82080664  0.66815953     0.03310
C942        C  0.74371539  0.82043686  0.68148710    -0.10780
H943        H  0.71862751  0.85710097  0.66759582     0.08900
H944        H  0.76794467  0.83415657  0.64417506     0.06430
H945        H  0.74380039  0.80988139  0.69196896     0.06280
N946        N  0.75799280  0.90984459  0.55558853    -0.27100
N947        N  0.76364911  0.89426297  0.56297842    -0.34960
C948        C  0.77294996  0.88439920  0.55056404     0.01240
C949        C  0.77333581  0.89393765  0.53423767     0.07260
C950        C  0.76362699  0.91007942  0.53789744    -0.05840
H951        H  0.77837366  0.87082642  0.55316220     0.07930
H952        H  0.76072738  0.92107513  0.52837297     0.09130
Cu953      Cu  0.75760913  0.88517772  0.58885149     0.44170
Cu954      Cu  0.74234167  0.92942105  0.57054452     0.41990
Cu955      Cu  0.72634934  0.91083746  0.61441538     0.43880
N956        N  0.74822087  0.87660984  0.61387384    -0.34490
N957        N  0.73620493  0.88616247  0.62338660    -0.28750
C958        C  0.73255708  0.87739277  0.63912196    -0.04850
C959        C  0.74283019  0.86141767  0.63948111     0.07370
C960        C  0.75259427  0.86137498  0.62318088     0.01170
H961        H  0.72332961  0.88251249  0.64955496     0.08820
H962        H  0.76206616  0.85106138  0.61827375     0.07900
N963        N  0.72072030  0.93685297  0.60553996    -0.35940
N964        N  0.72665960  0.94434931  0.59011629    -0.28120
C965        C  0.72129926  0.96212575  0.59004916    -0.03360
C966        C  0.71150436  0.96574256  0.60615270     0.05250
C967        C  0.71153598  0.94928875  0.61548105     0.03340
H968        H  0.72443971  0.97172902  0.57918605     0.08450
H969        H  0.70593769  0.94658688  0.62896211     0.07280
C970        C  0.67428610  0.83291207  0.73676629     0.03310
C971        C  0.66029855  0.84603333  0.73617790    -0.12840
C972        C  0.64625758  0.84590566  0.74934439     0.00810
C973        C  0.64628024  0.83230177  0.76295289    -0.11360
C974        C  0.66024320  0.81918786  0.76344612     0.03310
C975        C  0.67420655  0.81942884  0.75036247    -0.10780
H976        H  0.66046237  0.85623904  0.72539450     0.08900
H977        H  0.63572039  0.83196842  0.77339600     0.06430
H978        H  0.68491528  0.80910182  0.75071101     0.06280
N979        N  0.58363695  0.94419574  0.73458044    -0.27100
N980        N  0.59929865  0.93689180  0.72899752    -0.34960
C981        C  0.60927741  0.94945476  0.71998366     0.01240
C982        C  0.59971710  0.96577386  0.71970739     0.07260
C983        C  0.58345378  0.96195893  0.72917800    -0.05840
H984        H  0.62288948  0.94691751  0.71457835     0.07930
H985        H  0.57236132  0.97140436  0.73200056     0.09130
Cu986      Cu  0.60818768  0.91081850  0.73450825     0.44170
Cu987      Cu  0.56376930  0.92905739  0.74969769     0.41990
Cu988      Cu  0.58134182  0.88415373  0.76382915     0.43880
N989        N  0.61642929  0.88546612  0.74331898    -0.34490
N990        N  0.60638829  0.87549768  0.75456130    -0.28750
C991        C  0.61524768  0.85984046  0.75834885    -0.04850
C992        C  0.63180031  0.86002193  0.74899741     0.07370
C993        C  0.63206911  0.87653408  0.73959383     0.01170
H994        H  0.60991106  0.84918906  0.76720304     0.08820
H995        H  0.64289582  0.88191929  0.73097158     0.07900
N996        N  0.55559324  0.89349882  0.77006902    -0.35940
N997        N  0.54846318  0.90934552  0.76483619    -0.28120
C998        C  0.53079239  0.90977859  0.77060007    -0.03360
C999        C  0.52688437  0.89348562  0.77995815     0.05250
C1000       C  0.54303454  0.88365001  0.77922422     0.03340
H1001       H  0.52146721  0.92103971  0.76808383     0.08450
H1002       H  0.54542724  0.86992871  0.78436466     0.07280
C1003       C  0.67474732  0.73758449  0.83290015     0.03310
C1004       C  0.67436071  0.75084853  0.81909346    -0.12840
C1005       C  0.66034825  0.76386232  0.81879771     0.00810
C1006       C  0.64667327  0.76369019  0.83222421    -0.11360
C1007       C  0.64690536  0.75036919  0.84610172     0.03310
C1008       C  0.66100505  0.73727701  0.84629853    -0.10780
H1009       H  0.68481735  0.75093780  0.80850511     0.08900
H1010       H  0.63607615  0.77409209  0.83184631     0.06430
H1011       H  0.66134900  0.72670575  0.85671966     0.06280
N1012       N  0.58355652  0.73470755  0.94391616    -0.27100
N1013       N  0.59940492  0.72943314  0.93677904    -0.34960
C1014       C  0.60929618  0.72037629  0.94936346     0.01240
C1015       C  0.59948790  0.71975644  0.96552070     0.07260
C1016       C  0.58317389  0.72907786  0.96160395    -0.05840
H1017       H  0.62303239  0.71521368  0.94698404     0.07930
H1018       H  0.57192589  0.73165926  0.97093678     0.09130
Cu1019     Cu  0.60870021  0.73541648  0.91095217     0.44170
Cu1020     Cu  0.56370517  0.74970698  0.92866638     0.41990
Cu1021     Cu  0.58152151  0.76388454  0.88386633     0.43880
N1022       N  0.61711543  0.74436459  0.88570425    -0.34490
N1023       N  0.60689891  0.75526693  0.87555087    -0.28750
C1024       C  0.61577961  0.75909288  0.85991608    -0.04850
C1025       C  0.63252968  0.75011706  0.86030129     0.07370
C1026       C  0.63289844  0.74089827  0.87691382     0.01170
H1027       H  0.61027889  0.76762420  0.84909254     0.08820
H1028       H  0.64382901  0.73248389  0.88240395     0.07900
N1029       N  0.55565621  0.76990079  0.89299734    -0.35940
N1030       N  0.54845794  0.76471361  0.90882857    -0.28120
C1031       C  0.53080391  0.77052416  0.90919736    -0.03360
C1032       C  0.52698571  0.77986426  0.89288007     0.05250
C1033       C  0.54316213  0.77906600  0.88309389     0.03340
H1034       H  0.52145196  0.76812314  0.92046615     0.08450
H1035       H  0.54565324  0.78425772  0.86941114     0.07280
C1036       C  0.72960156  0.68134654  0.83286985     0.03310
C1037       C  0.72950306  0.66775291  0.84639731    -0.12840
C1038       C  0.74288022  0.65393265  0.84640887     0.00810
C1039       C  0.75638796  0.65393910  0.83270121    -0.11360
C1040       C  0.75656969  0.66761847  0.81923637     0.03310
C1041       C  0.74334748  0.68148456  0.81954192    -0.10780
H1042       H  0.71885812  0.66799665  0.85675141     0.08900
H1043       H  0.76689825  0.64344976  0.83244659     0.06430
H1044       H  0.74365252  0.69228682  0.80932299     0.06280
N1045       N  0.72688567  0.59076259  0.94413961    -0.27100
N1046       N  0.72130279  0.60641079  0.93683516    -0.34960
C1047       C  0.71210346  0.61626606  0.94933635     0.01240
C1048       C  0.71173149  0.60663373  0.96560961     0.07260
C1049       C  0.72132229  0.59046361  0.96183912    -0.05840
H1050       H  0.70673561  0.62988075  0.94683863     0.07930
H1051       H  0.72418330  0.57939438  0.97128889     0.09130
Cu1052     Cu  0.72732155  0.61552756  0.91095823     0.44170
Cu1053     Cu  0.74231930  0.57111690  0.92915498     0.41990
Cu1054     Cu  0.75755446  0.58917163  0.88481113     0.43880
N1055       N  0.73675717  0.62406172  0.88593340    -0.34490
N1056       N  0.74832829  0.61422040  0.87616643    -0.28750
C1057       C  0.75229761  0.62317819  0.86061130    -0.04850
C1058       C  0.74272511  0.63959018  0.86064942     0.07370
C1059       C  0.73300523  0.63966782  0.87697786     0.01170
H1060       H  0.76134301  0.61794536  0.85007457     0.08820
H1061       H  0.72404359  0.65028628  0.88218155     0.07900
N1062       N  0.76344597  0.56330825  0.89400620    -0.35940
N1063       N  0.75779093  0.55601657  0.90963286    -0.28120
C1064       C  0.76335967  0.53831045  0.90997296    -0.03360
C1065       C  0.77303216  0.53454306  0.89385126     0.05250
C1066       C  0.77269075  0.55081076  0.88420830     0.03340
H1067       H  0.76047741  0.52886370  0.92104276     0.08450
H1068       H  0.77813407  0.55332538  0.87062726     0.07280
C1069       C  0.82406581  0.73628758  0.68082857     0.03310
C1070       C  0.81109191  0.75041670  0.68102921    -0.12840
C1071       C  0.81099704  0.76353937  0.66707962     0.00810
C1072       C  0.82416592  0.76292896  0.65318515    -0.11360
C1073       C  0.83741077  0.74898850  0.65297713     0.03310
C1074       C  0.83722169  0.73564179  0.66683204    -0.10780
H1075       H  0.80116938  0.75131029  0.69207597     0.08900
H1076       H  0.82407040  0.77346642  0.64272395     0.06430
H1077       H  0.84717188  0.72461445  0.66676116     0.06280
N1078       N  0.90167558  0.76603165  0.55607593    -0.27100
N1079       N  0.88571949  0.77107136  0.56313321    -0.34960
C1080       C  0.87586808  0.78024497  0.55060016     0.01240
C1081       C  0.88579982  0.78115459  0.53453722     0.07260
C1082       C  0.90216313  0.77191149  0.53846885    -0.05840
H1083       H  0.86204167  0.78519933  0.55289983     0.07930
H1084       H  0.91348542  0.76950436  0.52917906     0.09130
Cu1085     Cu  0.87616483  0.76426598  0.58863495     0.44170
Cu1086     Cu  0.92140942  0.75089762  0.57137848     0.41990
Cu1087     Cu  0.90289530  0.73500515  0.61546565     0.43880
N1088       N  0.86723802  0.75443510  0.61335181    -0.34490
N1089       N  0.87721305  0.74321329  0.62340151    -0.28750
C1090       C  0.86813024  0.73928130  0.63890416    -0.04850
C1091       C  0.85153641  0.74855593  0.63853581     0.07370
C1092       C  0.85144062  0.75800828  0.62206263     0.01170
H1093       H  0.87351192  0.73073149  0.64977583     0.08820
H1094       H  0.84080476  0.76688787  0.61673579     0.07900
N1095       N  0.92916825  0.72997583  0.60676477    -0.35940
N1096       N  0.93654273  0.73572517  0.59120648    -0.28120
C1097       C  0.95433987  0.73035848  0.59104672    -0.03360
C1098       C  0.95811250  0.72074194  0.60722054     0.05250
C1099       C  0.94172175  0.72091556  0.61670574     0.03340
H1100       H  0.96381786  0.73325185  0.58000059     0.08450
H1101       H  0.93908084  0.71531836  0.63019858     0.07280
C1102       C  0.82697932  0.68220840  0.73799721     0.03310
C1103       C  0.81407379  0.68256349  0.75215999    -0.12840
C1104       C  0.81354105  0.66841451  0.76504728     0.00810
C1105       C  0.82592936  0.65383555  0.76378632    -0.11360
C1106       C  0.83900890  0.65338621  0.74969083     0.03310
C1107       C  0.83930919  0.66756335  0.73668879    -0.10780
H1108       H  0.80430644  0.69375258  0.75304126     0.08900
H1109       H  0.82522413  0.64291560  0.77381645     0.06430
H1110       H  0.84878949  0.66710165  0.72526603     0.06280
N1111       N  0.90247108  0.55583104  0.76656841    -0.27100
N1112       N  0.88639897  0.56278219  0.77140119    -0.34960
C1113       C  0.87662407  0.55026128  0.78066939     0.01240
C1114       C  0.88671612  0.53432196  0.78185290     0.07260
C1115       C  0.90309657  0.53829921  0.77266865    -0.05840
H1116       H  0.86271448  0.55245205  0.78543897     0.07930
H1117       H  0.91450114  0.52907367  0.77040611     0.09130
Cu1118     Cu  0.87641779  0.58801760  0.76418173     0.44170
Cu1119     Cu  0.92218880  0.57105539  0.75134927     0.41990
Cu1120     Cu  0.90288227  0.61416373  0.73435439     0.43880
N1121       N  0.86744147  0.61262534  0.75410326    -0.34490
N1122       N  0.87739921  0.62238925  0.74262006    -0.28750
C1123       C  0.86870668  0.63814430  0.73890666    -0.04850
C1124       C  0.85236227  0.63827453  0.74859963     0.07370
C1125       C  0.85199703  0.62179257  0.75806393     0.01170
H1126       H  0.87431728  0.64893765  0.73039706     0.08820
H1127       H  0.84154878  0.61687163  0.76739565     0.07900
N1128       N  0.92935678  0.60610251  0.72979880    -0.35940
N1129       N  0.93707341  0.59087593  0.73594322    -0.28120
C1130       C  0.95492244  0.59110241  0.73075716    -0.03360
C1131       C  0.95835552  0.60720438  0.72087377     0.05250
C1132       C  0.94171917  0.61622789  0.72069637     0.03340
H1133       H  0.96465167  0.58035195  0.73392706     0.08450
H1134       H  0.93873262  0.62951886  0.71479093     0.07280
C1135       C  0.35775704  0.00045226  0.30890154     0.03310
C1136       C  0.36454114  0.01702932  0.30173063    -0.12840
C1137       C  0.37880768  0.01718248  0.28854267     0.00810
C1138       C  0.38616993  0.00040512  0.28253407    -0.11360
C1139       C  0.37924037  0.98365395  0.28911493     0.03310
C1140       C  0.36512976  0.98384547  0.30243964    -0.10780
H1141       H  0.35883995  0.02979055  0.30672803     0.08900
H1142       H  0.39671735  0.00035368  0.27207437     0.06430
H1143       H  0.35981670  0.97107650  0.30787665     0.06280
C1144       C  0.30077292  0.00047196  0.36536991     0.03310
C1145       C  0.29446324  0.98388883  0.37294323    -0.12840
C1146       C  0.28119740  0.98372914  0.38711182     0.00810
C1147       C  0.27463679  0.00049516  0.39396897    -0.11360
C1148       C  0.28065597  0.01725851  0.38657351     0.03310
C1149       C  0.29373512  0.01707565  0.37221352    -0.10780
H1150       H  0.29991703  0.97112401  0.36767985     0.08900
H1151       H  0.26424541  0.00047165  0.40457664     0.06430
H1152       H  0.29872419  0.02982054  0.36644435     0.06280
N1153       N  0.04800331  0.73541422  0.40907722    -0.27100
N1154       N  0.05490074  0.73071446  0.39296979    -0.34960
C1155       C  0.04241116  0.72129670  0.38327400     0.01240
C1156       C  0.02655806  0.71984704  0.39349581     0.07260
C1157       C  0.03054889  0.72905041  0.40984294    -0.05840
H1158       H  0.04461056  0.71648174  0.36940548     0.07930
H1159       H  0.02141812  0.73106683  0.42136273     0.09130
Cu1160     Cu  0.08021119  0.73790525  0.38316398     0.44170
Cu1161     Cu  0.06326867  0.75064954  0.42869234     0.41990
Cu1162     Cu  0.10735438  0.76664120  0.41012035     0.43880
N1163       N  0.10517736  0.74730020  0.37443933    -0.34490
N1164       N  0.11539485  0.75826374  0.38455238    -0.28750
C1165       C  0.13110330  0.76186165  0.37566989    -0.04850
C1166       C  0.13069307  0.75265841  0.35904237     0.07370
C1167       C  0.11397651  0.74357147  0.35874339     0.01170
H1168       H  0.14211192  0.77017372  0.38121330     0.08820
H1169       H  0.10853909  0.73481774  0.34805335     0.07900
N1170       N  0.09855100  0.77186426  0.43628800    -0.35940
N1171       N  0.08302269  0.76599966  0.44368608    -0.28120
C1172       C  0.08288030  0.77130483  0.46146867    -0.03360
C1173       C  0.09902801  0.78101440  0.46520449     0.05250
C1174       C  0.10848364  0.78097545  0.44881879     0.03340
H1175       H  0.07190191  0.76823623  0.47098184     0.08450
H1176       H  0.12200705  0.78659170  0.44621091     0.07280
C1177       C  0.15919515  0.73768056  0.31836867     0.03310
C1178       C  0.14499198  0.73863448  0.33125495    -0.12840
C1179       C  0.14527656  0.75203962  0.34505352     0.00810
C1180       C  0.15977847  0.76469556  0.34555190    -0.11360
C1181       C  0.17387087  0.76387712  0.33256257     0.03310
C1182       C  0.17348438  0.75047834  0.31888434    -0.10780
H1183       H  0.13393339  0.72871694  0.33055298     0.08900
H1184       H  0.16020247  0.77530655  0.35593229     0.06430
H1185       H  0.18432788  0.74996483  0.30870682     0.06280
N1186       N  0.04840253  0.59160243  0.26387287    -0.27100
N1187       N  0.05544449  0.60764725  0.26866021    -0.34960
C1188       C  0.04296001  0.61748580  0.27789243     0.01240
C1189       C  0.02696214  0.60742534  0.27914358     0.07260
C1190       C  0.03086158  0.59102739  0.26999904    -0.05840
H1191       H  0.04533994  0.63127147  0.28288400     0.07930
H1192       H  0.02165702  0.57954016  0.26799684     0.09130
Cu1193     Cu  0.08118799  0.61696842  0.26230583     0.44170
Cu1194     Cu  0.06371367  0.57167363  0.24909963     0.41990
Cu1195     Cu  0.10909991  0.58904128  0.23544831     0.43880
N1196       N  0.10684775  0.62500653  0.25419698    -0.34490
N1197       N  0.11739085  0.61449583  0.24398068    -0.28750
C1198       C  0.13331752  0.62316317  0.24076128    -0.04850
C1199       C  0.13270399  0.64006958  0.24942275     0.07370
C1200       C  0.11565726  0.64074910  0.25781537     0.01170
H1201       H  0.14449021  0.61741303  0.23285698     0.08820
H1202       H  0.10989935  0.65185018  0.26579755     0.07900
N1203       N  0.09958755  0.56331246  0.22926874    -0.35940
N1204       N  0.08358684  0.55630094  0.23430205    -0.28120
C1205       C  0.08304824  0.53865633  0.22853326    -0.03360
C1206       C  0.09941492  0.53464678  0.21935759     0.05250
C1207       C  0.10941825  0.55069692  0.22021246     0.03340
H1208       H  0.07165286  0.52941928  0.23090247     0.08450
H1209       H  0.12323037  0.55297874  0.21519831     0.07280
C1210       C  0.17521839  0.66725731  0.23714929     0.03310
C1211       C  0.17435463  0.68156048  0.24987655    -0.12840
C1212       C  0.15992118  0.68232225  0.26247947     0.00810
C1213       C  0.14637926  0.66867997  0.26238577    -0.11360
C1214       C  0.14706971  0.65432463  0.24961656     0.03310
C1215       C  0.16156198  0.65373203  0.23699350    -0.10780
H1216       H  0.18489194  0.69208361  0.24996791     0.08900
H1217       H  0.13543875  0.66929734  0.27241737     0.06430
H1218       H  0.16225364  0.64290421  0.22685587     0.06280
N1219       N  0.43703517  0.76527710  0.09013200    -0.27100
N1220       N  0.42930203  0.77163463  0.10525744    -0.34960
C1221       C  0.44170843  0.78079868  0.11530026     0.01240
C1222       C  0.45837794  0.78041346  0.10632401     0.07260
C1223       C  0.45491827  0.77036549  0.09034018    -0.05840
H1224       H  0.43877551  0.78676286  0.12856812     0.07930
H1225       H  0.46467949  0.76690331  0.07971668     0.09130
Cu1226     Cu  0.40283319  0.76695306  0.11343751     0.44170
Cu1227     Cu  0.42226524  0.74950238  0.07054760     0.41990
Cu1228     Cu  0.37704997  0.73572359  0.08793401     0.43880
N1229       N  0.37741887  0.75832785  0.12170001    -0.34490
N1230       N  0.36777826  0.74634845  0.11219470    -0.28750
C1231       C  0.35228530  0.74238246  0.12129259    -0.04850
C1232       C  0.35226732  0.75235222  0.13747276     0.07370
C1233       C  0.36845906  0.76235242  0.13723529     0.01170
H1234       H  0.34206449  0.73271012  0.11652515     0.08820
H1235       H  0.37377337  0.77129460  0.14779699     0.07900
N1236       N  0.38691102  0.72855921  0.06264376    -0.35940
N1237       N  0.40278732  0.73380963  0.05552762    -0.28120
C1238       C  0.40334007  0.72784984  0.03795745    -0.03360
C1239       C  0.38710876  0.71832806  0.03410804     0.05250
C1240       C  0.37718247  0.71915151  0.05017778     0.03340
H1241       H  0.41456554  0.73049199  0.02860625     0.08450
H1242       H  0.36337461  0.71410935  0.05247274     0.07280
C1243       C  0.32661044  0.76312975  0.18123975     0.03310
C1244       C  0.33887517  0.76452995  0.16652632    -0.12840
C1245       C  0.33875439  0.75138324  0.15247243     0.00810
C1246       C  0.32579123  0.73714822  0.15301927    -0.11360
C1247       C  0.31337340  0.73590096  0.16756759     0.03310
C1248       C  0.31380712  0.74883783  0.18165027    -0.10780
H1249       H  0.34825077  0.77605639  0.16597706     0.08900
H1250       H  0.32523777  0.72695493  0.14225779     0.06430
H1251       H  0.30410228  0.74782254  0.19288835     0.06280
N1252       N  0.25879051  0.59032317  0.05591095    -0.27100
N1253       N  0.26470237  0.60580063  0.06335683    -0.34960
C1254       C  0.27391610  0.61569554  0.05088558     0.01240
C1255       C  0.27397495  0.60627810  0.03448350     0.07260
C1256       C  0.26416043  0.59018890  0.03814489    -0.05840
H1257       H  0.27952856  0.62920167  0.05351626     0.07930
H1258       H  0.26101958  0.57928588  0.02857954     0.09130
Cu1259     Cu  0.25928011  0.61468349  0.08944929     0.44170
Cu1260     Cu  0.24323524  0.57065581  0.07082096     0.41990
Cu1261     Cu  0.22957462  0.58812657  0.11585594     0.43880
N1262       N  0.25064518  0.62286398  0.11487793    -0.34490
N1263       N  0.23928664  0.61287974  0.12477109    -0.28750
C1264       C  0.23563610  0.62162790  0.14050956    -0.04850
C1265       C  0.24519203  0.63806855  0.14046966     0.07370
C1266       C  0.25457825  0.63837437  0.12394255     0.01170
H1267       H  0.22669045  0.61630017  0.15109257     0.08820
H1268       H  0.26331740  0.64914517  0.11862552     0.07900
N1269       N  0.22273471  0.56265250  0.10629969    -0.35940
N1270       N  0.22780639  0.55552675  0.09040673    -0.28120
C1271       C  0.22170497  0.53798406  0.08987521    -0.03360
C1272       C  0.21229340  0.53417688  0.10615089     0.05250
C1273       C  0.21334295  0.55023227  0.11607842     0.03340
H1274       H  0.22404721  0.52866853  0.07857269     0.08450
H1275       H  0.20829477  0.55262799  0.12983192     0.07280
C1276       C  0.23094888  0.66627511  0.18159027     0.03310
C1277       C  0.24420905  0.68013498  0.18138687    -0.12840
C1278       C  0.25762908  0.68041374  0.16771151     0.00810
C1279       C  0.25803240  0.66656978  0.15444427    -0.11360
C1280       C  0.24496255  0.65243473  0.15468212     0.03310
C1281       C  0.23152818  0.65229127  0.16845986    -0.10780
H1282       H  0.24401644  0.69075837  0.19179424     0.08900
H1283       H  0.26864471  0.66689391  0.14405372     0.06430
H1284       H  0.22129709  0.64151714  0.16895692     0.06280
C1285       C  0.25843996  0.83122458  0.32194127     0.03310
C1286       C  0.24460429  0.81796655  0.32156157    -0.12840
C1287       C  0.23065199  0.81829805  0.33466551     0.00810
C1288       C  0.23066269  0.83179293  0.34830243    -0.11360
C1289       C  0.24437194  0.84533540  0.34861963     0.03310
C1290       C  0.25832037  0.84490328  0.33536704    -0.10780
H1291       H  0.24454175  0.80758434  0.31090534     0.08900
H1292       H  0.21972103  0.83183105  0.35834666     0.06430
H1293       H  0.26903808  0.85521110  0.33524628     0.06280
N1294       N  0.22664514  0.91047134  0.44441985    -0.27100
N1295       N  0.22060874  0.89508287  0.43690828    -0.34960
C1296       C  0.21139107  0.88515708  0.44933925     0.01240
C1297       C  0.21145055  0.89445926  0.46580449     0.07260
C1298       C  0.22133216  0.91053088  0.46220612    -0.05840
H1299       H  0.20581566  0.87164789  0.44665937     0.07930
H1300       H  0.22463289  0.92132192  0.47184512     0.09130
Cu1301     Cu  0.22644124  0.88606842  0.41100197     0.44170
Cu1302     Cu  0.24248364  0.92989462  0.42950227     0.41990
Cu1303     Cu  0.25805077  0.91129862  0.38540265     0.43880
N1304       N  0.23675097  0.87666768  0.38669062    -0.34490
N1305       N  0.24889202  0.88605802  0.37714558    -0.28750
C1306       C  0.25354311  0.87646842  0.36217483    -0.04850
C1307       C  0.24383577  0.86010648  0.36239583     0.07370
C1308       C  0.23330248  0.86073234  0.37819280     0.01170
H1309       H  0.26313412  0.88124164  0.35189840     0.08820
H1310       H  0.22399302  0.85037596  0.38335797     0.07900
N1311       N  0.26394449  0.93726420  0.39439061    -0.35940
N1312       N  0.25819038  0.94471222  0.40990381    -0.28120
C1313       C  0.26373393  0.96243903  0.41007097    -0.03360
C1314       C  0.27349153  0.96607073  0.39396189     0.05250
C1315       C  0.27323164  0.94969247  0.38450439     0.03340
H1316       H  0.26070753  0.97201200  0.42098776     0.08450
H1317       H  0.27870530  0.94707414  0.37095413     0.07280
C1318       C  0.31121628  0.83278290  0.26396695     0.03310
C1319       C  0.31128367  0.81884613  0.25082376    -0.12840
C1320       C  0.32382875  0.81942347  0.23631689     0.00810
C1321       C  0.33663645  0.83375470  0.23536291    -0.11360
C1322       C  0.33692202  0.84754654  0.24877090     0.03310
C1323       C  0.32405938  0.84699175  0.26305290    -0.10780
H1324       H  0.30162922  0.80756407  0.25195763     0.08900
H1325       H  0.34624995  0.83413211  0.22404632     0.06430
H1326       H  0.32399446  0.85744254  0.27360213     0.06280
N1327       N  0.43593733  0.90934002  0.23530740    -0.27100
N1328       N  0.42830200  0.89402708  0.22920969    -0.34960
C1329       C  0.44075146  0.88398337  0.22014559     0.01240
C1330       C  0.45734693  0.89314392  0.22033727     0.07260
C1331       C  0.45380039  0.90923844  0.23016305    -0.05840
H1332       H  0.43788911  0.87062810  0.21431259     0.07930
H1333       H  0.46347644  0.92004921  0.23335884     0.09130
Cu1334     Cu  0.40184033  0.88571279  0.23392489     0.44170
Cu1335     Cu  0.42104206  0.92915213  0.25067654     0.41990
Cu1336     Cu  0.37565113  0.91203058  0.26406983     0.43880
N1337       N  0.37624666  0.87768182  0.24233087    -0.34490
N1338       N  0.36647029  0.88750075  0.25391116    -0.28750
C1339       C  0.35080584  0.87860465  0.25771789    -0.04850
C1340       C  0.35079836  0.86224973  0.24804861     0.07370
C1341       C  0.36717903  0.86215458  0.23839891     0.01170
H1342       H  0.34038217  0.88367441  0.26698182     0.08820
H1343       H  0.37249257  0.85139452  0.22967454     0.07900
N1344       N  0.38550498  0.93740502  0.27108454    -0.35940
N1345       N  0.40147846  0.94443166  0.26599563    -0.28120
C1346       C  0.40209437  0.96202251  0.27193277    -0.03360
C1347       C  0.38580776  0.96596706  0.28128449     0.05250
C1348       C  0.37577942  0.94993845  0.28036621     0.03340
H1349       H  0.41342709  0.97130556  0.26945329     0.08450
H1350       H  0.36194025  0.94769490  0.28532918     0.07280
C1351       C  0.35873116  0.69095750  0.99961967     0.03310
C1352       C  0.36625693  0.69729920  0.01622086    -0.12840
C1353       C  0.38042814  0.71057887  0.01642719     0.00810
C1354       C  0.38728805  0.71723413  0.99970106    -0.11360
C1355       C  0.37977587  0.71137296  0.98293298     0.03310
C1356       C  0.36541367  0.69825013  0.98305537    -0.10780
H1357       H  0.36099188  0.69181724  0.02898113     0.08900
H1358       H  0.39788434  0.72766833  0.99976735     0.06430
H1359       H  0.35958083  0.69339658  0.97028315     0.06280
C1360       C  0.30127662  0.63481647  0.00004484     0.03310
C1361       C  0.29497580  0.62726372  0.01663500    -0.12840
C1362       C  0.28166565  0.61309751  0.01681455     0.00810
C1363       C  0.27508209  0.60619624  0.00005529    -0.11360
C1364       C  0.28111013  0.61357192  0.98329978     0.03310
C1365       C  0.29420656  0.62793339  0.98346479    -0.10780
H1366       H  0.30047045  0.63254517  0.02938690     0.08900
H1367       H  0.26466802  0.59558359  0.00006490     0.06430
H1368       H  0.29920454  0.63365429  0.97070811     0.06280
C1369       C  0.35757716  0.00069343  0.69182353     0.03310
C1370       C  0.36470388  0.98415978  0.69879748    -0.12840
C1371       C  0.37904257  0.98410953  0.71191608     0.00810
C1372       C  0.38635136  0.00092293  0.71791241    -0.11360
C1373       C  0.37935895  0.01763354  0.71132463     0.03310
C1374       C  0.36510460  0.01733538  0.69812463    -0.10780
H1375       H  0.35920286  0.97132380  0.69372387     0.08900
H1376       H  0.39698801  0.00100810  0.72829374     0.06430
H1377       H  0.35972316  0.03006382  0.69270004     0.06280
C1378       C  0.30131062  0.00057500  0.63420310     0.03310
C1379       C  0.29447239  0.01707631  0.62686884    -0.12840
C1380       C  0.28118328  0.01709547  0.61269980     0.00810
C1381       C  0.27477449  0.00025278  0.60585087    -0.11360
C1382       C  0.28097143  0.98357993  0.61328070     0.03310
C1383       C  0.29422494  0.98390393  0.62749279    -0.10780
H1384       H  0.29962686  0.02991736  0.63227279     0.08900
H1385       H  0.26432545  0.00013001  0.59528117     0.06430
H1386       H  0.29935234  0.97118329  0.63317798     0.06280
N1387       N  0.04869079  0.59058020  0.73366035    -0.27100
N1388       N  0.05617344  0.60598668  0.72761571    -0.34960
C1389       C  0.04365904  0.61583569  0.71838923     0.01240
C1390       C  0.02718804  0.60646369  0.71849975     0.07260
C1391       C  0.03087156  0.59043905  0.72837647    -0.05840
H1392       H  0.04625792  0.62934546  0.71278939     0.07930
H1393       H  0.02125511  0.57963171  0.73173273     0.09130
Cu1394     Cu  0.08222057  0.61497886  0.73338288     0.44170
Cu1395     Cu  0.06349855  0.57114319  0.74956261     0.41990
Cu1396     Cu  0.10764492  0.58933346  0.76505260     0.43880
N1397       N  0.10729486  0.62347106  0.74291509    -0.34490
N1398       N  0.11674395  0.61391736  0.75499372    -0.28750
C1399       C  0.13247622  0.62270966  0.75876870    -0.04850
C1400       C  0.13290526  0.63872353  0.74854379     0.07370
C1401       C  0.11663895  0.63873945  0.73865120     0.01170
H1402       H  0.14282171  0.61760254  0.76811290     0.08820
H1403       H  0.11176043  0.64906064  0.72917333     0.07900
N1404       N  0.09837183  0.56356681  0.77131992    -0.35940
N1405       N  0.08279373  0.55620592  0.76552808    -0.28120
C1406       C  0.08241693  0.53853177  0.77119920    -0.03360
C1407       C  0.09847843  0.53483436  0.78106574     0.05250
C1408       C  0.10811326  0.55113653  0.78074379     0.03340
H1409       H  0.07139980  0.52903040  0.76816783     0.08450
H1410       H  0.12169864  0.55368750  0.78623939     0.07280
C1411       C  0.17521156  0.66603433  0.76147541     0.03310
C1412       C  0.16142841  0.65263984  0.76161251    -0.12840
C1413       C  0.14752465  0.65274208  0.74827605     0.00810
C1414       C  0.14759540  0.66648379  0.73481583    -0.11360
C1415       C  0.16136144  0.67986386  0.73467577     0.03310
C1416       C  0.17510453  0.67970577  0.74804830    -0.10780
H1417       H  0.16153456  0.64236985  0.77233010     0.08900
H1418       H  0.13708658  0.66686852  0.72431310     0.06430
H1419       H  0.18545113  0.69042340  0.74823042     0.06280
N1420       N  0.08315204  0.76537466  0.55530505    -0.27100
N1421       N  0.09875110  0.77105104  0.56272422    -0.34960
C1422       C  0.10863605  0.78038234  0.55032619     0.01240
C1423       C  0.09908536  0.78075754  0.53399319     0.07260
C1424       C  0.08292178  0.77102403  0.53762629    -0.05840
H1425       H  0.12222326  0.78585236  0.55294304     0.07930
H1426       H  0.07190293  0.76812391  0.52809453     0.09130
Cu1427     Cu  0.10778587  0.76503758  0.58862910     0.44170
Cu1428     Cu  0.06350190  0.74967259  0.57012950     0.41990
Cu1429     Cu  0.08205423  0.73353332  0.61390483     0.43880
N1430       N  0.11619218  0.75569065  0.61372535    -0.34490
N1431       N  0.10659509  0.74362771  0.62315669    -0.28750
C1432       C  0.11527614  0.74001814  0.63896121    -0.04850
C1433       C  0.13126596  0.75033716  0.63943984     0.07370
C1434       C  0.13137947  0.76011437  0.62314143     0.01170
H1435       H  0.11011274  0.73073173  0.64932417     0.08820
H1436       H  0.14171153  0.76961980  0.61828803     0.07900
N1437       N  0.05606271  0.72775080  0.60488428    -0.35940
N1438       N  0.04852577  0.73383668  0.58953438    -0.28120
C1439       C  0.03066383  0.72863072  0.58952270    -0.03360
C1440       C  0.02704687  0.71875951  0.60557688     0.05250
C1441       C  0.04357850  0.71859569  0.61481983     0.03340
H1442       H  0.02097520  0.73204102  0.57880479     0.08450
H1443       H  0.04624662  0.71304460  0.62832937     0.07280
C1444       C  0.15867245  0.73756913  0.68159430     0.03310
C1445       C  0.14517177  0.73739783  0.66795260    -0.12840
C1446       C  0.14521937  0.75074573  0.65409351     0.00810
C1447       C  0.15891554  0.76430247  0.65418512    -0.11360
C1448       C  0.17233175  0.76451653  0.66792491     0.03310
C1449       C  0.17231493  0.75102378  0.68150243    -0.10780
H1450       H  0.13500945  0.72654319  0.66801519     0.08900
H1451       H  0.15932130  0.77472688  0.64362655     0.06430
H1452       H  0.18286895  0.75101702  0.69201211     0.06280
C1453       C  0.32560389  0.76325862  0.81832826     0.03310
C1454       C  0.33888686  0.76380297  0.83214176    -0.12840
C1455       C  0.33881984  0.75062960  0.84614861     0.00810
C1456       C  0.32521007  0.73697589  0.84611458    -0.11360
C1457       C  0.31205263  0.73634592  0.83211905     0.03310
C1458       C  0.31224046  0.74954779  0.81824079    -0.10780
H1459       H  0.34900437  0.77470173  0.83198947     0.08900
H1460       H  0.32473617  0.72674832  0.85686119     0.06430
H1461       H  0.30193588  0.74924787  0.80749245     0.06280
N1462       N  0.43655887  0.76647044  0.90955243    -0.27100
N1463       N  0.42912536  0.77249728  0.89412359    -0.34960
C1464       C  0.44167044  0.78171348  0.88429702     0.01240
C1465       C  0.45811434  0.78164027  0.89370834     0.07260
C1466       C  0.45438606  0.77176596  0.90972811    -0.05840
H1467       H  0.43908515  0.78734985  0.87080742     0.07930
H1468       H  0.46396205  0.76848472  0.92058597     0.09130
Cu1469     Cu  0.40304070  0.76690117  0.88511552     0.44170
Cu1470     Cu  0.42157445  0.75073470  0.92902863     0.41990
Cu1471     Cu  0.37687505  0.73628310  0.91116434     0.43880
N1472       N  0.37797081  0.75745905  0.87648771    -0.34490
N1473       N  0.36822911  0.74575804  0.88622672    -0.28750
C1474       C  0.35277066  0.74160034  0.87713571    -0.04850
C1475       C  0.35283712  0.75117455  0.86073040     0.07370
C1476       C  0.36908342  0.76110706  0.86080329     0.01170
H1477       H  0.34234281  0.73232741  0.88222704     0.08820
H1478       H  0.37432825  0.77005384  0.85018481     0.07900
N1479       N  0.38620112  0.72978531  0.93681891    -0.35940
N1480       N  0.40200528  0.73512349  0.94404284    -0.28120
C1481       C  0.40247459  0.72917273  0.96161879    -0.03360
C1482       C  0.38624423  0.71959511  0.96537397     0.05250
C1483       C  0.37640916  0.72037872  0.94922829     0.03340
H1484       H  0.41370962  0.73173897  0.97099370     0.08450
H1485       H  0.36271553  0.71511418  0.94675243     0.07280
C1486       C  0.22810674  0.66821164  0.81969269     0.03310
C1487       C  0.22826672  0.65456373  0.83316976    -0.12840
C1488       C  0.24166466  0.65470744  0.84699873     0.00810
C1489       C  0.25488994  0.66871815  0.84714575    -0.11360
C1490       C  0.25478247  0.68233068  0.83362165     0.03310
C1491       C  0.24151334  0.68192530  0.81978403    -0.10780
H1492       H  0.21792599  0.64388839  0.83272143     0.08900
H1493       H  0.26549730  0.66902629  0.85755443     0.06430
H1494       H  0.24167041  0.69221111  0.80904213     0.06280
N1495       N  0.25814591  0.59088222  0.94417528    -0.27100
N1496       N  0.26369702  0.60654676  0.93686344    -0.34960
C1497       C  0.27281158  0.61649499  0.94937266     0.01240
C1498       C  0.27318678  0.60690866  0.96566797     0.07260
C1499       C  0.26367333  0.59065966  0.96189985    -0.05840
H1500       H  0.27815685  0.63012230  0.94683473     0.07930
H1501       H  0.26087177  0.57957499  0.97135598     0.09130
Cu1502     Cu  0.25780870  0.61560959  0.91096438     0.44170
Cu1503     Cu  0.24282557  0.57114409  0.92910500     0.41990
Cu1504     Cu  0.22795843  0.58916139  0.88453142     0.43880
N1505       N  0.24828733  0.62435201  0.88606668    -0.34490
N1506       N  0.23683962  0.61446076  0.87616371    -0.28750
C1507       C  0.23267941  0.62360200  0.86076514    -0.04850
C1508       C  0.24199902  0.64018762  0.86105894     0.07370
C1509       C  0.25177108  0.64017014  0.87736860     0.01170
H1510       H  0.22367995  0.61837924  0.85016382     0.08820
H1511       H  0.26058729  0.65085869  0.88273315     0.07900
N1512       N  0.22199095  0.56328590  0.89372221    -0.35940
N1513       N  0.22746250  0.55603215  0.90943604    -0.28120
C1514       C  0.22173643  0.53836039  0.90980324    -0.03360
C1515       C  0.21214946  0.53457531  0.89361280     0.05250
C1516       C  0.21271199  0.55079628  0.88389785     0.03340
H1517       H  0.22441798  0.52895751  0.92095934     0.08450
H1518       H  0.20734681  0.55329723  0.87027982     0.07280
C1519       C  0.32611850  0.81860053  0.76304658     0.03310
C1520       C  0.33902923  0.83276205  0.76386022    -0.12840
C1521       C  0.33887395  0.84676790  0.75067019     0.00810
C1522       C  0.32548206  0.84644700  0.73682162    -0.11360
C1523       C  0.31263315  0.83217699  0.73601804     0.03310
C1524       C  0.31291822  0.81829467  0.74919545    -0.10780
H1525       H  0.34900646  0.83280657  0.77487871     0.08900
H1526       H  0.32497155  0.85715320  0.72655222     0.06430
H1527       H  0.30286911  0.80730356  0.74870763     0.06280
N1528       N  0.43644167  0.91049401  0.76607555    -0.27100
N1529       N  0.42894699  0.89507027  0.77205503    -0.34960
C1530       C  0.44145531  0.88511967  0.78115454     0.01240
C1531       C  0.45795025  0.89444278  0.78108596     0.07260
C1532       C  0.45429332  0.91054354  0.77130541    -0.05840
H1533       H  0.43878889  0.87161545  0.78673288     0.07930
H1534       H  0.46392555  0.92137393  0.76806352     0.09130
Cu1535     Cu  0.40280233  0.88622322  0.76664509     0.44170
Cu1536     Cu  0.42138744  0.93008645  0.75054182     0.41990
Cu1537     Cu  0.37650517  0.91212771  0.73624182     0.43880
N1538       N  0.37771154  0.87749770  0.75745334    -0.34490
N1539       N  0.36788180  0.88716929  0.74578372    -0.28750
C1540       C  0.35246397  0.87796280  0.74169774    -0.04850
C1541       C  0.35267171  0.86155940  0.75129272     0.07370
C1542       C  0.36894164  0.86175456  0.76115764     0.01170
H1543       H  0.34199488  0.88294103  0.73242021     0.08820
H1544       H  0.37431441  0.85114752  0.77003577     0.07900
N1545       N  0.38581388  0.93786619  0.72989397    -0.35940
N1546       N  0.40162543  0.94512296  0.73518669    -0.28120
C1547       C  0.40197872  0.96276498  0.72939144    -0.03360
C1548       C  0.38567625  0.96652411  0.71995541     0.05250
C1549       C  0.37591628  0.95031872  0.72066894     0.03340
H1550       H  0.41318080  0.97218277  0.73196813     0.08450
H1551       H  0.36219095  0.94783167  0.71549321     0.07280
C1552       C  0.25634101  0.83226803  0.68109526     0.03310
C1553       C  0.24309556  0.81839941  0.68064640    -0.12840
C1554       C  0.22977066  0.81826453  0.66686521     0.00810
C1555       C  0.22967644  0.83203606  0.65351672    -0.11360
C1556       C  0.24304881  0.84589478  0.65372126     0.03310
C1557       C  0.25641125  0.84588236  0.66757682    -0.10780
H1558       H  0.24309006  0.80778919  0.69106776     0.08900
H1559       H  0.21904537  0.83190375  0.64312583     0.06430
H1560       H  0.26695150  0.85636791  0.66795251     0.06280
N1561       N  0.22759132  0.90931427  0.55612414    -0.27100
N1562       N  0.22223383  0.89352852  0.56331141    -0.34960
C1563       C  0.21307876  0.88364772  0.55077757     0.01240
C1564       C  0.21247396  0.89341961  0.53459927     0.07260
C1565       C  0.22190641  0.90969202  0.53845396    -0.05840
H1566       H  0.20783865  0.86995889  0.55321103     0.07930
H1567       H  0.22452952  0.92090379  0.52909850     0.09130
Cu1568     Cu  0.22828517  0.88439318  0.58913929     0.44170
Cu1569     Cu  0.24279247  0.92901688  0.57133143     0.41990
Cu1570     Cu  0.25750178  0.91121005  0.61609343     0.43880
N1571       N  0.23735715  0.87590390  0.61428137    -0.34490
N1572       N  0.24852879  0.88591134  0.62438589    -0.28750
C1573       C  0.25230489  0.87691312  0.63996884    -0.04850
C1574       C  0.24301137  0.86031994  0.63958034     0.07370
C1575       C  0.23366899  0.86016470  0.62303198     0.01170
H1576       H  0.26100817  0.88223515  0.65076556     0.08820
H1577       H  0.22500666  0.84940899  0.61755184     0.07900
N1578       N  0.26340177  0.93708549  0.60683506    -0.35940
N1579       N  0.25797255  0.94422260  0.59105149    -0.28120
C1580       C  0.26357545  0.96192359  0.59061851    -0.03360
C1581       C  0.27303279  0.96586818  0.60684085     0.05250
C1582       C  0.27253745  0.94969913  0.61664742     0.03340
H1583       H  0.26088435  0.97124034  0.57939476     0.08450
H1584       H  0.27784468  0.94732668  0.63031309     0.07280
C1585       C  0.30061717  0.36537422  0.00003698     0.03310
C1586       C  0.29436735  0.37298077  0.01661120    -0.12840
C1587       C  0.28108230  0.38712891  0.01678212     0.00810
C1588       C  0.27448479  0.39399776  0.00002017    -0.11360
C1589       C  0.28044799  0.38658247  0.98326182     0.03310
C1590       C  0.29351127  0.37220672  0.98344017    -0.10780
H1591       H  0.29985928  0.36772847  0.02937037     0.08900
H1592       H  0.26408804  0.40460015  0.00003420     0.06430
H1593       H  0.29844200  0.36643471  0.97068584     0.06280
C1594       C  0.35772746  0.30895574  0.00009076     0.03310
C1595       C  0.36530101  0.30248807  0.01662990    -0.12840
C1596       C  0.37943483  0.28917093  0.01670311     0.00810
C1597       C  0.38618749  0.28262986  0.99988002    -0.11360
C1598       C  0.37864005  0.28865704  0.98318285     0.03310
C1599       C  0.36433075  0.30178148  0.98346372    -0.10780
H1600       H  0.36011778  0.30792868  0.02943222     0.08900
H1601       H  0.39677439  0.27221414  0.99979957     0.06430
H1602       H  0.35849393  0.30676430  0.97074996     0.06280
N1603       N  0.04823752  0.41059425  0.73323773    -0.27100
N1604       N  0.05600153  0.39568030  0.72641871    -0.34960
C1605       C  0.04350754  0.38568472  0.71730097     0.01240
C1606       C  0.02674812  0.39444787  0.71823850     0.07260
C1607       C  0.03025473  0.41027487  0.72852397    -0.05840
H1608       H  0.04639044  0.37248084  0.71116118     0.07930
H1609       H  0.02042805  0.42064611  0.73251992     0.09130
Cu1610     Cu  0.08245736  0.38734141  0.73104874     0.44170
Cu1611     Cu  0.06300446  0.42995234  0.74934849     0.41990
Cu1612     Cu  0.10773661  0.41213599  0.76342130     0.43880
N1613       N  0.10727980  0.37839564  0.74073121    -0.34490
N1614       N  0.11665481  0.38763835  0.75312041    -0.28750
C1615       C  0.13164925  0.37809212  0.75781640    -0.04850
C1616       C  0.13162875  0.36186974  0.74792118     0.07370
C1617       C  0.11592882  0.36256829  0.73718358     0.01170
H1618       H  0.14154937  0.38261352  0.76792700     0.08820
H1619       H  0.11070536  0.35213234  0.72800170     0.07900
N1620       N  0.09826554  0.43756036  0.77051892    -0.35940
N1621       N  0.08248068  0.44482470  0.76523198    -0.28120
C1622       C  0.08205764  0.46237381  0.77127786    -0.03360
C1623       C  0.09829450  0.46605947  0.78087188     0.05250
C1624       C  0.10808076  0.44990592  0.78000497     0.03340
H1625       H  0.07090773  0.47181430  0.76866141     0.08450
H1626       H  0.12182804  0.44744870  0.78512087     0.07280
C1627       C  0.16992809  0.33149722  0.76529222     0.03310
C1628       C  0.15760626  0.34610220  0.76377801    -0.12840
C1629       C  0.14477196  0.34657982  0.74942309     0.00810
C1630       C  0.14461718  0.33232386  0.73649816    -0.11360
C1631       C  0.15680844  0.31758708  0.73814684     0.03310
C1632       C  0.16949695  0.31726120  0.75251852    -0.10780
H1633       H  0.15824961  0.35705283  0.77377861     0.08900
H1634       H  0.13536232  0.33277122  0.72488418     0.06430
H1635       H  0.17919409  0.30603148  0.75364726     0.06280
N1636       N  0.08338758  0.23508053  0.55561554    -0.27100
N1637       N  0.09928305  0.22992451  0.56273908    -0.34960
C1638       C  0.10904708  0.22056580  0.55029388     0.01240
C1639       C  0.09910076  0.21964753  0.53422694     0.07260
C1640       C  0.08283182  0.22907644  0.53806199    -0.05840
H1641       H  0.12281461  0.21548057  0.55266142     0.07930
H1642       H  0.07152909  0.23153142  0.52874672     0.09130
Cu1643     Cu  0.10882552  0.23677982  0.58821444     0.44170
Cu1644     Cu  0.06385480  0.25056957  0.57071780     0.41990
Cu1645     Cu  0.08285475  0.26748708  0.61423090     0.43880
N1646       N  0.11776899  0.24661787  0.61290286    -0.34490
N1647       N  0.10812410  0.25837824  0.62263868    -0.28750
C1648       C  0.11708580  0.26202291  0.63829378    -0.04850
C1649       C  0.13325505  0.25200278  0.63834729     0.07370
C1650       C  0.13322405  0.24241611  0.62195748     0.01170
H1651       H  0.11186188  0.27086974  0.64899721     0.08820
H1652       H  0.14351316  0.23297889  0.61693158     0.07900
N1653       N  0.05651174  0.27244904  0.60557101    -0.35940
N1654       N  0.04894789  0.26618934  0.59029012    -0.28120
C1655       C  0.03104514  0.27118213  0.59031733    -0.03360
C1656       C  0.02738754  0.28109318  0.60632079     0.05250
C1657       C  0.04396099  0.28149713  0.61551177     0.03340
H1658       H  0.02138201  0.26768716  0.57959526     0.08450
H1659       H  0.04666607  0.28728812  0.62891507     0.07280
C1660       C  0.17284553  0.23574339  0.66764775     0.03310
C1661       C  0.17275253  0.24874110  0.68172012    -0.12840
C1662       C  0.16012541  0.26317252  0.68134841     0.00810
C1663       C  0.14731577  0.26426739  0.66705380    -0.11360
C1664       C  0.14707161  0.25104438  0.65309141     0.03310
C1665       C  0.15997160  0.23677525  0.65347479    -0.10780
H1666       H  0.18242234  0.24753394  0.69297193     0.08900
H1667       H  0.13766803  0.27555683  0.66685374     0.06430
H1668       H  0.16006108  0.22634142  0.64291061     0.06280
N1669       N  0.40226360  0.05700949  0.73369207    -0.27100
N1670       N  0.38683897  0.06444377  0.72762460    -0.34960
C1671       C  0.37687805  0.05185804  0.71861132     0.01240
C1672       C  0.38620665  0.03539440  0.71884229     0.07260
C1673       C  0.40231064  0.03915018  0.72861740    -0.05840
H1674       H  0.36339436  0.05447655  0.71291960     0.07930
H1675       H  0.41317370  0.02959049  0.73192277     0.09130
Cu1676     Cu  0.37813681  0.09070825  0.73263296     0.44170
Cu1677     Cu  0.42195290  0.07209203  0.74905100     0.41990
Cu1678     Cu  0.40493138  0.11768267  0.76174959     0.43880
N1679       N  0.36981983  0.11612493  0.74126474    -0.34490
N1680       N  0.37985709  0.12621830  0.75241486    -0.28750
C1681       C  0.37075731  0.14167183  0.75646138    -0.04850
C1682       C  0.35404071  0.14122569  0.74738730     0.07370
C1683       C  0.35394660  0.12478065  0.73785272     0.01170
H1684       H  0.37596076  0.15227206  0.76546212     0.08820
H1685       H  0.34300317  0.11916293  0.72951063     0.07900
N1686       N  0.43030940  0.10793072  0.76885382    -0.35940
N1687       N  0.43720738  0.09180918  0.76418613    -0.28120
C1688       C  0.45466766  0.09106621  0.77052935    -0.03360
C1689       C  0.45867052  0.10743837  0.77968715     0.05250
C1690       C  0.44281330  0.11765487  0.77823203     0.03340
H1691       H  0.46378504  0.07952915  0.76855933     0.08450
H1692       H  0.44060787  0.13152283  0.78305409     0.07280
C1693       C  0.31049928  0.16721527  0.73656029     0.03310
C1694       C  0.32479372  0.15447685  0.73553160    -0.12840
C1695       C  0.33912418  0.15483879  0.74837660     0.00810
C1696       C  0.33895841  0.16817875  0.76225044    -0.11360
C1697       C  0.32439811  0.18064418  0.76355582     0.03310
C1698       C  0.31018664  0.18014387  0.75066334    -0.10780
H1699       H  0.32471953  0.14448218  0.72454841     0.08900
H1700       H  0.34998846  0.16888541  0.77218828     0.06430
H1701       H  0.29899463  0.18991690  0.75149089     0.06280
N1702       N  0.25818829  0.05609194  0.58980397    -0.27100
N1703       N  0.26424619  0.06361219  0.60517633    -0.34960
C1704       C  0.27346273  0.05118469  0.61509619     0.01240
C1705       C  0.27339844  0.03470743  0.60581040     0.07260
C1706       C  0.26349608  0.03829441  0.58975420    -0.05840
H1707       H  0.27912110  0.05390564  0.62855631     0.07930
H1708       H  0.26024822  0.02865712  0.57894580     0.09130
Cu1709     Cu  0.25868265  0.08961845  0.61409753     0.44170
Cu1710     Cu  0.24248177  0.07110269  0.57032072     0.41990
Cu1711     Cu  0.22801998  0.11581511  0.58845363     0.43880
N1712       N  0.24877135  0.11415481  0.62335696    -0.34490
N1713       N  0.23698267  0.12394187  0.61378368    -0.28750
C1714       C  0.23226498  0.13886693  0.62341344    -0.04850
C1715       C  0.24155713  0.13835904  0.63999366     0.07370
C1716       C  0.25192887  0.12245486  0.63945299     0.01170
H1717       H  0.22279064  0.14922252  0.61859288     0.08820
H1718       H  0.26079094  0.11700766  0.65004413     0.07900
N1719       N  0.22179876  0.10664933  0.56264679    -0.35940
N1720       N  0.22708069  0.09088078  0.55537930    -0.28120
C1721       C  0.22123120  0.09054295  0.53775862    -0.03360
C1722       C  0.21177950  0.10681154  0.53401365     0.05250
C1723       C  0.21253109  0.11653754  0.55021267     0.03340
H1724       H  0.22376992  0.07936049  0.52834990     0.08450
H1725       H  0.20731400  0.13020865  0.55272530     0.07280
C1726       C  0.25295511  0.16474474  0.68314003     0.03310
C1727       C  0.23895218  0.17779500  0.68337114    -0.12840
C1728       C  0.22561980  0.17776714  0.66960919     0.00810
C1729       C  0.22632164  0.16477558  0.65553528    -0.11360
C1730       C  0.24047068  0.15173798  0.65508681     0.03310
C1731       C  0.25379137  0.15182254  0.66900042    -0.10780
H1732       H  0.23861726  0.18814909  0.69404752     0.08900
H1733       H  0.21593470  0.16510579  0.64490808     0.06430
H1734       H  0.26503405  0.14211394  0.66880692     0.06280
C1735       C  0.22639047  0.33188900  0.81999870     0.03310
C1736       C  0.22687960  0.34570843  0.83329620    -0.12840
C1737       C  0.24048870  0.34564452  0.84692088     0.00810
C1738       C  0.25351715  0.33149295  0.84711096    -0.11360
C1739       C  0.25283063  0.31750632  0.83400296     0.03310
C1740       C  0.23927295  0.31771659  0.82046311    -0.10780
H1741       H  0.21660852  0.35642756  0.83289853     0.08900
H1742       H  0.26434698  0.33129732  0.85729282     0.06430
H1743       H  0.23885661  0.30696257  0.81019490     0.06280
N1744       N  0.22672857  0.44422818  0.90943227    -0.27100
N1745       N  0.22122593  0.43705291  0.89368501    -0.34960
C1746       C  0.21198782  0.44959551  0.88390581     0.01240
C1747       C  0.21150178  0.46577935  0.89367456     0.07260
C1748       C  0.22107887  0.46191031  0.90985478    -0.05840
H1749       H  0.20665210  0.44718903  0.87025244     0.07930
H1750       H  0.22384902  0.47128268  0.92102065     0.09130
Cu1751     Cu  0.22725985  0.41126365  0.88436513     0.44170
Cu1752     Cu  0.24209313  0.42901057  0.92905766     0.41990
Cu1753     Cu  0.25687027  0.38456388  0.91093488     0.43880
N1754       N  0.23616305  0.38602028  0.87594728    -0.34490
N1755       N  0.24747854  0.37604185  0.88589024    -0.28750
C1756       C  0.25085162  0.36021416  0.87718279    -0.04850
C1757       C  0.24113946  0.36028150  0.86083933     0.07370
C1758       C  0.23198291  0.37692706  0.86051923     0.01170
H1759       H  0.25946964  0.34941858  0.88260536     0.08820
H1760       H  0.22300433  0.38217636  0.84992673     0.07900
N1761       N  0.26284191  0.39355919  0.93685752    -0.35940
N1762       N  0.25738017  0.40924464  0.94416309    -0.28120
C1763       C  0.26298675  0.40947917  0.96186874    -0.03360
C1764       C  0.27246314  0.39322118  0.96563364     0.05250
C1765       C  0.27197679  0.38361571  0.94934850     0.03340
H1766       H  0.26027626  0.42058661  0.97131766     0.08450
H1767       H  0.27728315  0.36998493  0.94680517     0.07280
C1768       C  0.32377603  0.23668829  0.81884749     0.03310
C1769       C  0.30944209  0.24941288  0.81957525    -0.12840
C1770       C  0.30938975  0.26299609  0.83306695     0.00810
C1771       C  0.32317875  0.26334229  0.84641181    -0.11360
C1772       C  0.33743569  0.25045899  0.84602762     0.03310
C1773       C  0.33768268  0.23716739  0.83212208    -0.10780
H1774       H  0.29849025  0.24892856  0.80949702     0.08900
H1775       H  0.32283438  0.27389354  0.85685717     0.06430
H1776       H  0.34857031  0.22707764  0.83156854     0.06280
N1777       N  0.40099052  0.26595588  0.94377507    -0.27100
N1778       N  0.38511218  0.27122364  0.93668049    -0.34960
C1779       C  0.37522151  0.28016865  0.94933396     0.01240
C1780       C  0.38507139  0.28071376  0.96548961     0.07260
C1781       C  0.40140600  0.27147703  0.96149345    -0.05840
H1782       H  0.36149570  0.28536584  0.94697510     0.07930
H1783       H  0.41271516  0.26892586  0.97077631     0.09130
Cu1784     Cu  0.37590197  0.26548920  0.91074210     0.44170
Cu1785     Cu  0.42086747  0.25118769  0.92840270     0.41990
Cu1786     Cu  0.40368961  0.23836138  0.88286330     0.43880
N1787       N  0.36760328  0.25688086  0.88531379    -0.34490
N1788       N  0.37805055  0.24651714  0.87484763    -0.28750
C1789       C  0.36907732  0.24263062  0.85926262    -0.04850
C1790       C  0.35203474  0.25100715  0.86000892     0.07370
C1791       C  0.35159061  0.25994431  0.87676957     0.01170
H1792       H  0.37467805  0.23441334  0.84825387     0.08820
H1793       H  0.34042464  0.26783197  0.88255268     0.07900
N1794       N  0.42931069  0.23182708  0.89235894    -0.35940
N1795       N  0.43622780  0.23645820  0.90849714    -0.28120
C1796       C  0.45370797  0.23019526  0.90920270    -0.03360
C1797       C  0.45769948  0.22112622  0.89279131     0.05250
C1798       C  0.44182066  0.22256240  0.88258427     0.03340
H1799       H  0.46280656  0.23204829  0.92079349     0.08450
H1800       H  0.43953936  0.21766421  0.86875200     0.07280
N1801       N  0.40226783  0.26609776  0.05571356    -0.27100
N1802       N  0.38670672  0.27181914  0.06312351    -0.34960
C1803       C  0.37682315  0.28110474  0.05069821     0.01240
C1804       C  0.38631264  0.28140612  0.03433986     0.07260
C1805       C  0.40245342  0.27166031  0.03799223    -0.05840
H1806       H  0.36323297  0.28653642  0.05329575     0.07930
H1807       H  0.41340254  0.26866755  0.02843163     0.09130
Cu1808     Cu  0.37756767  0.26573304  0.08898268     0.44170
Cu1809     Cu  0.42185984  0.25044593  0.07070987     0.41990
Cu1810     Cu  0.40326926  0.23462843  0.11470854     0.43880
N1811       N  0.36870114  0.25603488  0.11379901    -0.34490
N1812       N  0.37828027  0.24409934  0.12339574    -0.28750
C1813       C  0.36919393  0.24007705  0.13886845    -0.04850
C1814       C  0.35296957  0.25000151  0.13895792     0.07370
C1815       C  0.35313931  0.25997384  0.12277924     0.01170
H1816       H  0.37423643  0.23078698  0.14928240     0.08820
H1817       H  0.34273776  0.26927059  0.11770907     0.07900
N1818       N  0.42931555  0.22891252  0.10577559    -0.35940
N1819       N  0.43681813  0.23480592  0.09033220    -0.28120
C1820       C  0.45461785  0.22942071  0.09026765    -0.03360
C1821       C  0.45823220  0.21962120  0.10636856     0.05250
C1822       C  0.44176381  0.21969894  0.11570575     0.03340
H1823       H  0.46424763  0.23255847  0.07942198     0.08450
H1824       H  0.43908727  0.21414292  0.12921171     0.07280
C1825       C  0.32464994  0.23625035  0.18021898     0.03310
C1826       C  0.33842721  0.23640999  0.16685161    -0.12840
C1827       C  0.33862052  0.24998979  0.15322098     0.00810
C1828       C  0.32497189  0.26355755  0.15332835    -0.11360
C1829       C  0.31149593  0.26369416  0.16699444     0.03310
C1830       C  0.31128248  0.24996864  0.18034693    -0.10780
H1831       H  0.34881263  0.22580051  0.16710326     0.08900
H1832       H  0.32477337  0.27416432  0.14294783     0.06430
H1833       H  0.30070947  0.24995327  0.19082174     0.06280
N1834       N  0.40117932  0.05629511  0.26521105    -0.27100
N1835       N  0.38555547  0.06360040  0.27089221    -0.34960
C1836       C  0.37572607  0.05109572  0.28014270     0.01240
C1837       C  0.38534704  0.03481160  0.28047823     0.07260
C1838       C  0.40148845  0.03858603  0.27078677    -0.05840
H1839       H  0.36215695  0.05363645  0.28564951     0.07930
H1840       H  0.41257252  0.02914408  0.26791531     0.09130
Cu1841     Cu  0.37648246  0.08956313  0.26515382     0.44170
Cu1842     Cu  0.42078522  0.07137383  0.24971509     0.41990
Cu1843     Cu  0.40276671  0.11592063  0.23498357     0.43880
N1844       N  0.36798448  0.11473696  0.25606898    -0.34490
N1845       N  0.37780620  0.12457678  0.24452379    -0.28750
C1846       C  0.36884351  0.14016292  0.24068943    -0.04850
C1847       C  0.35244394  0.14007047  0.25031671     0.07370
C1848       C  0.35238443  0.12368112  0.25994043     0.01170
H1849       H  0.37403252  0.15072131  0.23164114     0.08820
H1850       H  0.34174662  0.11840354  0.26885868     0.07900
N1851       N  0.42856262  0.10667801  0.22872173    -0.35940
N1852       N  0.43584389  0.09099045  0.23422313    -0.28120
C1853       C  0.45354887  0.09067235  0.22857186    -0.03360
C1854       C  0.45733468  0.10686925  0.21900409     0.05250
C1855       C  0.44106799  0.11653028  0.21948643     0.03340
H1856       H  0.46300380  0.07959255  0.23138910     0.08450
H1857       H  0.43859675  0.13018878  0.21421235     0.07280
C1858       C  0.31035601  0.16750354  0.26316198     0.03310
C1859       C  0.31025285  0.18093069  0.24954074    -0.12840
C1860       C  0.32422705  0.18133984  0.23643840     0.00810
C1861       C  0.33796160  0.16793392  0.23662284    -0.11360
C1862       C  0.33801307  0.15423223  0.25013574     0.03310
C1863       C  0.32413073  0.15416559  0.26345966    -0.10780
H1864       H  0.29943902  0.19114912  0.24925914     0.08900
H1865       H  0.34848787  0.16827695  0.22615013     0.06430
H1866       H  0.32396440  0.14390683  0.27419296     0.06280
N1867       N  0.25800597  0.40966463  0.05585322    -0.27100
N1868       N  0.26384632  0.39415703  0.06324973    -0.34960
C1869       C  0.27317774  0.38437082  0.05079985     0.01240
C1870       C  0.27337829  0.39389685  0.03445705     0.07260
C1871       C  0.26353510  0.40993807  0.03813725    -0.05840
H1872       H  0.27869558  0.37082962  0.05336726     0.07930
H1873       H  0.26043120  0.42086933  0.02860302     0.09130
Cu1874     Cu  0.25785389  0.38501915  0.08912930     0.44170
Cu1875     Cu  0.24221030  0.42905836  0.07077813     0.41990
Cu1876     Cu  0.22696786  0.41089649  0.11511791     0.43880
N1877       N  0.24827776  0.37626613  0.11403197    -0.34490
N1878       N  0.23648269  0.38591893  0.12372289    -0.28750
C1879       C  0.23243093  0.37681315  0.13916982    -0.04850
C1880       C  0.24217650  0.36049752  0.13914418     0.07370
C1881       C  0.25208893  0.36063669  0.12293069     0.01170
H1882       H  0.22317785  0.38187084  0.14960984     0.08820
H1883       H  0.26120611  0.35013683  0.11775258     0.07900
N1884       N  0.22081765  0.43669851  0.10585691    -0.35940
N1885       N  0.22649216  0.44398763  0.09023374    -0.28120
C1886       C  0.22086718  0.46166607  0.08984594    -0.03360
C1887       C  0.21114064  0.46544359  0.10593163     0.05250
C1888       C  0.21149336  0.44919173  0.11560723     0.03340
H1889       H  0.22382103  0.47111135  0.07879407     0.08450
H1890       H  0.20607026  0.44672407  0.12920583     0.07280
C1891       C  0.22805895  0.33216196  0.18023327     0.03310
C1892       C  0.24156064  0.31858493  0.18027190    -0.12840
C1893       C  0.25502488  0.31841321  0.16664130     0.00810
C1894       C  0.25528012  0.33216038  0.15325349    -0.11360
C1895       C  0.24193442  0.34602601  0.15326631     0.03310
C1896       C  0.22833698  0.34593091  0.16688178    -0.10780
H1897       H  0.24153450  0.30812062  0.19084170     0.08900
H1898       H  0.26599630  0.33198140  0.14296984     0.06430
H1899       H  0.21783841  0.35642912  0.16718150     0.06280
N1900       N  0.04813569  0.40987819  0.26544872    -0.27100
N1901       N  0.05548096  0.39424857  0.27102317    -0.34960
C1902       C  0.04303053  0.38439088  0.28031476     0.01240
C1903       C  0.02672887  0.39399051  0.28077604     0.07260
C1904       C  0.03043599  0.41015776  0.27112511    -0.05840
H1905       H  0.04559222  0.37079109  0.28569029     0.07930
H1906       H  0.02094505  0.42120941  0.26831229     0.09130
Cu1907     Cu  0.08132621  0.38510163  0.26490648     0.44170
Cu1908     Cu  0.06316943  0.42945815  0.24989098     0.41990
Cu1909     Cu  0.10752927  0.41114092  0.23453832     0.43880
N1910       N  0.10627314  0.37635287  0.25546609    -0.34490
N1911       N  0.11609343  0.38608047  0.24383048    -0.28750
C1912       C  0.13162396  0.37703055  0.23992368    -0.04850
C1913       C  0.13150409  0.36067924  0.24961294     0.07370
C1914       C  0.11515390  0.36073267  0.25932401     0.01170
H1915       H  0.14220889  0.38217008  0.23086603     0.08820
H1916       H  0.10989853  0.35021364  0.26838202     0.07900
N1917       N  0.09841337  0.43704232  0.22865350    -0.35940
N1918       N  0.08281805  0.44441425  0.23433183    -0.28120
C1919       C  0.08259856  0.46213117  0.22877395    -0.03360
C1920       C  0.09875867  0.46582578  0.21908749     0.05250
C1921       C  0.10830146  0.44950238  0.21941420     0.03340
H1922       H  0.07159877  0.47164930  0.23171285     0.08450
H1923       H  0.12190202  0.44693600  0.21399157     0.07280
C1924       C  0.17307513  0.33260133  0.23634362     0.03310
C1925       C  0.15957267  0.34623920  0.23626589    -0.12840
C1926       C  0.14572397  0.34630805  0.24963250     0.00810
C1927       C  0.14558267  0.33251774  0.26304121    -0.11360
C1928       C  0.15905431  0.31887129  0.26305513     0.03310
C1929       C  0.17265333  0.31877444  0.24958837    -0.10780
H1930       H  0.15994273  0.35665974  0.22569742     0.08900
H1931       H  0.13514719  0.33231264  0.27360869     0.06430
H1932       H  0.18295503  0.30803890  0.24949256     0.06280
N1933       N  0.25757412  0.05626316  0.40927981    -0.27100
N1934       N  0.26355019  0.06378618  0.39388430    -0.34960
C1935       C  0.27275623  0.05135202  0.38395306     0.01240
C1936       C  0.27276241  0.03488955  0.39327991     0.07260
C1937       C  0.26293096  0.03849463  0.40935400    -0.05840
H1938       H  0.27844153  0.05407608  0.37051339     0.07930
H1939       H  0.25978427  0.02889807  0.42022156     0.09130
Cu1940     Cu  0.25815061  0.08994452  0.38522258     0.44170
Cu1941     Cu  0.24188262  0.07109649  0.42885570     0.41990
Cu1942     Cu  0.22726591  0.11579895  0.41110379     0.43880
N1943       N  0.24895339  0.11506871  0.37675344    -0.34490
N1944       N  0.23712632  0.12472522  0.38639730    -0.28750
C1945       C  0.23299001  0.14013644  0.37726729    -0.04850
C1946       C  0.24270746  0.14010374  0.36093817     0.07370
C1947       C  0.25270766  0.12394807  0.36110795     0.01170
H1948       H  0.22352120  0.15043884  0.38220711     0.08820
H1949       H  0.26165182  0.11867771  0.35050503     0.07900
N1950       N  0.22064887  0.10621498  0.43664554    -0.35940
N1951       N  0.22613743  0.09049414  0.44386367    -0.28120
C1952       C  0.22031831  0.09001641  0.46148409    -0.03360
C1953       C  0.21064409  0.10613777  0.46526371     0.05250
C1954       C  0.21124429  0.11592391  0.44909658     0.03340
H1955       H  0.22313358  0.07890679  0.47090137     0.08450
H1956       H  0.20599852  0.12960316  0.44668950     0.07280
C1957       C  0.25411821  0.16645191  0.31780777     0.03310
C1958       C  0.25509337  0.15372140  0.33209536    -0.12840
C1959       C  0.24193075  0.15383083  0.34612529     0.00810
C1960       C  0.22795643  0.16706411  0.34577893    -0.11360
C1961       C  0.22695040  0.17975725  0.33141662     0.03310
C1962       C  0.24010424  0.17948574  0.31748529    -0.10780
H1963       H  0.26622858  0.14388920  0.33220676     0.08900
H1964       H  0.21776555  0.16759151  0.35656587     0.06430
H1965       H  0.23953379  0.18949205  0.30649463     0.06280
N1966       N  0.08258442  0.23444141  0.44415760    -0.27100
N1967       N  0.09829447  0.22896105  0.43687428    -0.34960
C1968       C  0.10807334  0.21955887  0.44929478     0.01240
C1969       C  0.09834775  0.21895034  0.46550037     0.07260
C1970       C  0.08219206  0.22861952  0.46177960    -0.05840
H1971       H  0.12173908  0.21425779  0.44681994     0.07930
H1972       H  0.07108755  0.23138775  0.47122929     0.09130
Cu1973     Cu  0.10769635  0.23540824  0.41119998     0.44170
Cu1974     Cu  0.06299336  0.25010496  0.42925309     0.41990
Cu1975     Cu  0.08142309  0.26594956  0.38534007     0.43880
N1976       N  0.11626963  0.24496401  0.38623098    -0.34490
N1977       N  0.10642867  0.25663685  0.37657568    -0.28750
C1978       C  0.11515737  0.26035460  0.36083273    -0.04850
C1979       C  0.13142067  0.25050398  0.36061068     0.07370
C1980       C  0.13166032  0.24089856  0.37700951     0.01170
H1981       H  0.10977658  0.26927808  0.35026847     0.08820
H1982       H  0.14214617  0.23164628  0.38198665     0.07900
N1983       N  0.05540823  0.27167445  0.39430827    -0.35940
N1984       N  0.04797339  0.26579531  0.40978358    -0.28120
C1985       C  0.03019644  0.27122719  0.40996077    -0.03360
C1986       C  0.02651757  0.28103432  0.39388380     0.05250
C1987       C  0.04293054  0.28091492  0.38444542     0.03340
H1988       H  0.02062702  0.26810909  0.42086662     0.08450
H1989       H  0.04555570  0.28646875  0.37093092     0.07280
C1990       C  0.17199458  0.23600714  0.33165197     0.03310
C1991       C  0.17127265  0.24889512  0.31750226    -0.12840
C1992       C  0.15780330  0.26249590  0.31761337     0.00810
C1993       C  0.14492085  0.26315120  0.33180207    -0.11360
C1994       C  0.14525019  0.25002283  0.34585971     0.03310
C1995       C  0.15888998  0.23644153  0.34567640    -0.10780
H1996       H  0.18131371  0.24848215  0.30653035     0.08900
H1997       H  0.13478179  0.27400216  0.33179990     0.06430
H1998       H  0.15945300  0.22614960  0.35635817     0.06280
C1999       C  0.18346948  0.13462302  0.49974444     0.03310
C2000       C  0.19062204  0.12777889  0.51631354    -0.12840
C2001       C  0.20365529  0.11338130  0.51643949     0.00810
C2002       C  0.20952203  0.10592876  0.49966973    -0.11360
C2003       C  0.20289637  0.11282227  0.48293848     0.03310
C2004       C  0.18964940  0.12700513  0.48314590    -0.10780
H2005       H  0.18577024  0.13357262  0.52908943     0.08900
H2006       H  0.21991425  0.09532045  0.49961486     0.06430
H2007       H  0.18416100  0.13228509  0.47039480     0.06280
C2008       C  0.12654120  0.19120199  0.49986400     0.03310
C2009       C  0.11983108  0.19837411  0.51645809    -0.12840
C2010       C  0.10555684  0.21154273  0.51663142     0.00810
C2011       C  0.09815237  0.21759084  0.49989503    -0.11360
C2012       C  0.10503137  0.21107011  0.48313102     0.03310
C2013       C  0.11912861  0.19772960  0.48327774    -0.10780
H2014       H  0.12556630  0.19339165  0.52921971     0.08900
H2015       H  0.08761678  0.22805925  0.49990057     0.06430
H2016       H  0.12440431  0.19232701  0.47049554     0.06280
C2017       C  0.15925890  0.18107583  0.50501264    -0.08970
C2018       C  0.14113748  0.17671639  0.49983141     0.07230
C2019       C  0.13718023  0.15849191  0.49461059    -0.02740
C2020       C  0.15108903  0.14510855  0.49453248    -0.07190
C2021       C  0.16918060  0.14940691  0.49974697     0.06340
C2022       C  0.17321067  0.16766340  0.50491808    -0.02210
Br2023     Br  0.19774479  0.17505929  0.51113756    -0.01910
H2024       H  0.16261707  0.19502017  0.50893558     0.10250
H2025       H  0.14770105  0.13117967  0.49060566     0.08270
Br2026     Br  0.11271342  0.15105725  0.48826353    -0.02340
C2027       C  0.21809555  0.21239142  0.33156836    -0.08970
C2028       C  0.21268032  0.19393255  0.33137776     0.07230
C2029       C  0.19387880  0.18937979  0.33124758    -0.02740
C2030       C  0.18080540  0.20332601  0.33142781    -0.07190
C2031       C  0.18622301  0.22178640  0.33162475     0.06340
C2032       C  0.20503517  0.22633549  0.33175671    -0.02210
Br2033     Br  0.21364863  0.25122000  0.33318525    -0.01910
H2034       H  0.23256001  0.21594303  0.33185599     0.10250
H2035       H  0.16634232  0.19977775  0.33115193     0.08270
Br2036     Br  0.18534247  0.16447992  0.32987405    -0.02340
C2037       C  0.15548003  0.28637595  0.27179605    -0.08970
C2038       C  0.15881680  0.30455359  0.27710029     0.07230
C2039       C  0.16178590  0.30882806  0.29567585    -0.02740
C2040       C  0.16120407  0.29490143  0.30873028    -0.07190
C2041       C  0.15783290  0.27672335  0.30345512     0.06340
C2042       C  0.15491747  0.27242836  0.28486241    -0.02210
Br2043     Br  0.14934335  0.24797211  0.27679911    -0.01910
H2044       H  0.15308864  0.28310029  0.25749379     0.10250
H2045       H  0.16367244  0.29819286  0.32301593     0.08270
Br2046     Br  0.16755019  0.33324665  0.30372726    -0.02340
C2047       C  0.21917901  0.33397296  0.21282810    -0.08970
C2048       C  0.21385075  0.33215403  0.19444287     0.07230
C2049       C  0.19513101  0.33038462  0.18991927    -0.02740
C2050       C  0.18200644  0.33067172  0.20380573    -0.07190
C2051       C  0.18732514  0.33253415  0.22218244     0.06340
C2052       C  0.20605096  0.33422698  0.22672379    -0.02210
Br2053     Br  0.21429810  0.33780519  0.25149586    -0.01910
H2054       H  0.23358093  0.33545108  0.21632971     0.10250
H2055       H  0.16760732  0.32917775  0.20030270     0.08270
Br2056     Br  0.18687926  0.32660802  0.16518331    -0.02340
C2057       C  0.27805024  0.16275895  0.27215722    -0.08970
C2058       C  0.29603437  0.16743424  0.27718514     0.07230
C2059       C  0.30015330  0.17188466  0.29549191    -0.02740
C2060       C  0.28627432  0.17138035  0.30861307    -0.07190
C2061       C  0.26829986  0.16663190  0.30362426     0.06340
C2062       C  0.26414629  0.16228305  0.28528643    -0.02210
Br2063     Br  0.23996910  0.15488266  0.27775894    -0.01910
H2064       H  0.27491056  0.15926106  0.25805303     0.10250
H2065       H  0.28943534  0.17490153  0.32270701     0.08270
Br2066     Br  0.32429564  0.17942014  0.30299735    -0.02340
C2067       C  0.27879687  0.27244914  0.16550362    -0.08970
C2068       C  0.29722120  0.27786382  0.16702910     0.07230
C2069       C  0.30168102  0.29660304  0.16852738    -0.02740
C2070       C  0.28769733  0.30963177  0.16828029    -0.07190
C2071       C  0.26927816  0.30422391  0.16670587     0.06340
C2072       C  0.26480782  0.28547739  0.16528017    -0.02210
Br2073     Br  0.24001464  0.27700816  0.16205881    -0.01910
H2074       H  0.27532842  0.25804329  0.16421443     0.10250
H2075       H  0.29116681  0.32403532  0.16958261     0.08270
Br2076     Br  0.32645395  0.30505642  0.17190044    -0.02340
C2077       C  0.32290414  0.19021657  0.20383091    -0.08970
C2078       C  0.32431535  0.19555354  0.22223898     0.07230
C2079       C  0.32581620  0.21426673  0.22677479    -0.02740
C2080       C  0.32583060  0.22735517  0.21284917    -0.07190
C2081       C  0.32445362  0.22202136  0.19442664     0.06340
C2082       C  0.32287023  0.20330599  0.18990704    -0.02210
Br2083     Br  0.31964011  0.19497731  0.16512615    -0.01910
H2084       H  0.32156696  0.17582874  0.20032554     0.10250
H2085       H  0.32716725  0.24174054  0.21636816     0.08270
Br2086     Br  0.32878777  0.22257555  0.25160190    -0.02340
C2087       C  0.28535076  0.30869105  0.83141117    -0.08970
C2088       C  0.26703439  0.30329534  0.83382621     0.07230
C2089       C  0.26264297  0.28458521  0.83581355    -0.02740
C2090       C  0.27664948  0.27155912  0.83540880    -0.07190
C2091       C  0.29498157  0.27699579  0.83312315     0.06340
C2092       C  0.29932752  0.29569181  0.83095544    -0.02210
Br2093     Br  0.32392689  0.30409829  0.82640150    -0.01910
H2094       H  0.28873405  0.32306168  0.82961047     0.10250
H2095       H  0.27328761  0.25717697  0.83714232     0.08270
Br2096     Br  0.23796461  0.27624423  0.83997820    -0.02340
C2097       C  0.32369774  0.21324630  0.77262747    -0.08970
C2098       C  0.32434076  0.19476458  0.77790952     0.07230
C2099       C  0.32484896  0.19015267  0.79665833    -0.02740
C2100       C  0.32473290  0.20405077  0.80978496    -0.07190
C2101       C  0.32404477  0.22253919  0.80450789     0.06340
C2102       C  0.32362580  0.22714704  0.78574183    -0.02210
Br2103     Br  0.32397443  0.25207936  0.77719120    -0.01910
H2104       H  0.32351262  0.21686484  0.75821260     0.10250
H2105       H  0.32489900  0.20042086  0.82419532     0.08270
Br2106     Br  0.32470674  0.16520299  0.80512281    -0.02340
C2107       C  0.27792064  0.16248215  0.72839336    -0.08970
C2108       C  0.29580802  0.16695179  0.72285688     0.07230
C2109       C  0.29948542  0.17087852  0.70432913    -0.02740
C2110       C  0.28530828  0.16996299  0.69152793    -0.07190
C2111       C  0.26745610  0.16535207  0.69702508     0.06340
C2112       C  0.26371576  0.16162825  0.71557979    -0.02210
Br2113     Br  0.23969779  0.15455741  0.72385035    -0.01910
H2114       H  0.27509360  0.15939140  0.74265206     0.10250
H2115       H  0.28814278  0.17307083  0.67727343     0.08270
Br2116     Br  0.32338703  0.17833397  0.69603309    -0.02340
C2117       C  0.18045052  0.20294545  0.67135339    -0.08970
C2118       C  0.18635359  0.22091485  0.66784286     0.07230
C2119       C  0.20504956  0.22452256  0.66460124    -0.02740
C2120       C  0.21768197  0.21023981  0.66543383    -0.07190
C2121       C  0.21183638  0.19231458  0.66911943     0.06340
C2122       C  0.19309533  0.18859078  0.67196522    -0.02210
Br2123     Br  0.18433704  0.16433101  0.67729877    -0.01910
H2124       H  0.16602837  0.20014752  0.67378004     0.10250
H2125       H  0.23208972  0.21304614  0.66290961     0.08270
Br2126     Br  0.21382998  0.24843321  0.65798715    -0.02340
C2127       C  0.20258093  0.33236030  0.77406224    -0.08970
C2128       C  0.18413550  0.33165200  0.77950771     0.07230
C2129       C  0.17962672  0.33121165  0.79825504    -0.02740
C2130       C  0.19363115  0.33143787  0.81129395    -0.07190
C2131       C  0.21209218  0.33205411  0.80584934     0.06340
C2132       C  0.21658111  0.33265995  0.78707925    -0.02210
Br2133     Br  0.24144041  0.33485581  0.77851618    -0.01910
H2134       H  0.20606204  0.33293107  0.75962244     0.10250
H2135       H  0.19014005  0.33085295  0.82572647     0.08270
Br2136     Br  0.15470922  0.32940501  0.80667388    -0.02340
C2137       C  0.17406500  0.30019931  0.71490056    -0.08970
C2138       C  0.15741797  0.30325096  0.72403485     0.07230
C2139       C  0.14180458  0.29283570  0.71935317    -0.02740
C2140       C  0.14305468  0.27971675  0.70550324    -0.07190
C2141       C  0.15967885  0.27679275  0.69621109     0.06340
C2142       C  0.17531286  0.28715342  0.70102773    -0.02210
Br2143     Br  0.19835982  0.28516652  0.68845786    -0.01910
H2144       H  0.18606854  0.30833587  0.71830761     0.10250
H2145       H  0.13101394  0.27167491  0.70201502     0.08270
Br2146     Br  0.11873646  0.29539664  0.73185857    -0.02340
C2147       C  0.33302642  0.35499452  0.00533468    -0.08970
C2148       C  0.31495423  0.35063239  0.00009977     0.07230
C2149       C  0.31098062  0.33234495  0.99500082    -0.02740
C2150       C  0.32496806  0.31896892  0.99497934    -0.07190
C2151       C  0.34307283  0.32339046  0.00017168     0.06340
C2152       C  0.34697296  0.34164603  0.00533122    -0.02210
Br2153     Br  0.37141430  0.34918009  0.01165859    -0.01910
H2154       H  0.33637120  0.36894734  0.00921326     0.10250
H2155       H  0.32165401  0.30500592  0.99108618     0.08270
Br2156     Br  0.28647756  0.32486439  0.98876365    -0.02340
C2157       C  0.27995523  0.83296102  0.72717364    -0.08970
C2158       C  0.29841586  0.83209003  0.72180115     0.07230
C2159       C  0.30296612  0.83121390  0.70307230    -0.02740
C2160       C  0.28901240  0.83135137  0.68999310    -0.07190
C2161       C  0.27054378  0.83226275  0.69535024     0.06340
C2162       C  0.26599381  0.83312900  0.71409896    -0.02210
Br2163     Br  0.24112404  0.83555160  0.72254715    -0.01910
H2164       H  0.27643396  0.83379640  0.74158918     0.10250
H2165       H  0.29255208  0.83050571  0.67558472     0.08270
Br2166     Br  0.32786315  0.82891135  0.69470461    -0.02340
C2167       C  0.33347758  0.77360138  0.78714647    -0.08970
C2168       C  0.32545860  0.77738100  0.80417622     0.07230
C2169       C  0.31761612  0.79463935  0.80762854    -0.02740
C2170       C  0.31802758  0.80804092  0.79402555    -0.07190
C2171       C  0.32610407  0.80429951  0.77702125     0.06340
C2172       C  0.33384737  0.78700210  0.77351464    -0.02210
Br2173     Br  0.34532527  0.78134545  0.75051939    -0.01910
H2174       H  0.33954850  0.76028750  0.78454541     0.10250
H2175       H  0.31196111  0.82135428  0.79664159     0.08270
Br2176     Br  0.30598486  0.80027874  0.83055398    -0.02340
C2177       C  0.27921516  0.72804795  0.83346485    -0.08970
C2178       C  0.29757454  0.72235814  0.83240389     0.07230
C2179       C  0.30177752  0.70353017  0.83176852    -0.02740
C2180       C  0.28759918  0.69069090  0.83231416    -0.07190
C2181       C  0.26923445  0.69636599  0.83339312     0.06340
C2182       C  0.26502836  0.71520597  0.83402716    -0.02210
Br2183     Br  0.24033496  0.72409298  0.83661120    -0.01910
H2184       H  0.27595028  0.74253473  0.83413383     0.10250
H2185       H  0.29088128  0.67621137  0.83161304     0.08270
Br2186     Br  0.32647657  0.69466789  0.82920927    -0.02340
C2187       C  0.20516901  0.77268477  0.66603814    -0.08970
C2188       C  0.18687045  0.77842112  0.66770194     0.07230
C2189       C  0.18276744  0.79722902  0.66906534    -0.02740
C2190       C  0.19698506  0.81001949  0.66861649    -0.07190
C2191       C  0.21528318  0.80429762  0.66694015     0.06340
C2192       C  0.21939685  0.78548194  0.66559359    -0.02210
Br2193     Br  0.24400468  0.77662740  0.66224108    -0.01910
H2194       H  0.20834616  0.75821278  0.66483648     0.10250
H2195       H  0.19379799  0.82448366  0.66986737     0.08270
Br2196     Br  0.15817524  0.80608127  0.67251925    -0.02340
C2197       C  0.18292343  0.66826577  0.79434273    -0.08970
C2198       C  0.18896530  0.66642340  0.77618069     0.07230
C2199       C  0.20788858  0.66514590  0.77242779    -0.02740
C2200       C  0.22045645  0.66587930  0.78682834    -0.07190
C2201       C  0.21440493  0.66771438  0.80497354     0.06340
C2202       C  0.19549182  0.66895593  0.80874633    -0.02210
Br2203     Br  0.18619962  0.67250936  0.83312828    -0.01910
H2204       H  0.16837595  0.66942873  0.79728063     0.10250
H2205       H  0.23500999  0.66473434  0.78390735     0.08270
Br2206     Br  0.21725181  0.66138469  0.74813628    -0.02340
C2207       C  0.17385970  0.71060577  0.69505768    -0.08970
C2208       C  0.15919254  0.72301604  0.69537736     0.07230
C2209       C  0.14525183  0.72120823  0.70859454    -0.02740
C2210       C  0.14615843  0.70696605  0.72131599    -0.07190
C2211       C  0.16083999  0.69454142  0.72099453     0.06340
C2212       C  0.17471772  0.69631821  0.70770116    -0.02210
Br2213     Br  0.19447019  0.67906350  0.70558623    -0.01910
H2214       H  0.18449212  0.71188110  0.68473468     0.10250
H2215       H  0.13549423  0.70565924  0.73160113     0.08270
Br2216     Br  0.12520216  0.73821186  0.71021103    -0.02340
C2217       C  0.34611966  0.00940726  0.66054105    -0.08970
C2218       C  0.34280381  0.00066895  0.67741287     0.07230
C2219       C  0.32556377  0.99206482  0.68003875    -0.02740
C2220       C  0.31233344  0.99206893  0.66589880    -0.07190
C2221       C  0.31572814  0.00074784  0.64897507     0.06340
C2222       C  0.33291159  0.00944519  0.64645027    -0.02210
Br2223     Br  0.33959823  0.02059746  0.62357026    -0.01910
H2224       H  0.35926421  0.01596974  0.65815825     0.10250
H2225       H  0.29918287  0.98549093  0.66824310     0.08270
Br2226     Br  0.31893455  0.98109720  0.70304374    -0.02340
C2227       C  0.32588999  0.68108455  0.99465953    -0.08970
C2228       C  0.34401401  0.67656661  0.99964726     0.07230
C2229       C  0.34783073  0.65830740  0.00481733    -0.02740
C2230       C  0.33378269  0.64504148  0.00503342    -0.07190
C2231       C  0.31568887  0.64950124  0.00002110     0.06340
C2232       C  0.31179945  0.66778688  0.99488916    -0.02210
Br2233     Br  0.28728856  0.67536283  0.98887484    -0.01910
H2234       H  0.32264010  0.69506123  0.99079523     0.10250
H2235       H  0.33706032  0.63107914  0.00890044     0.08270
Br2236     Br  0.37227653  0.65066530  0.01091851    -0.02340
C2237       C  0.30353586  0.82868754  0.29668301    -0.08970
C2238       C  0.29769544  0.83250736  0.27876914     0.07230
C2239       C  0.27907999  0.83619154  0.27521543    -0.02740
C2240       C  0.26644792  0.83552788  0.28950520    -0.07190
C2241       C  0.27222617  0.83157356  0.30738799     0.06340
C2242       C  0.29089925  0.82823675  0.31104909    -0.02210
Br2243     Br  0.29957874  0.82243592  0.33522064    -0.01910
H2244       H  0.31790576  0.82593633  0.29943266     0.10250
H2245       H  0.25210149  0.83840196  0.28674140     0.08270
Br2246     Br  0.27044211  0.84320914  0.25138065    -0.02340
C2247       C  0.30955314  0.78623143  0.19905176    -0.08970
C2248       C  0.32620569  0.77724828  0.19560613     0.07230
C2249       C  0.34195624  0.78194614  0.20581944    -0.02740
C2250       C  0.34081855  0.79564710  0.21911159    -0.07190
C2251       C  0.32417332  0.80475728  0.22245602     0.06340
C2252       C  0.30840703  0.79991921  0.21230352    -0.02210
Br2253     Br  0.28524295  0.81215535  0.21489341    -0.01910
H2254       H  0.29743006  0.78281116  0.19110485     0.10250
H2255       H  0.35296196  0.79912303  0.22699917     0.08270
Br2256     Br  0.36506668  0.76960365  0.20285945    -0.02340
C2257       C  0.28081403  0.72673165  0.16659710    -0.08970
C2258       C  0.29931193  0.72154275  0.16767886     0.07230
C2259       C  0.30404719  0.70287824  0.16872020    -0.02740
C2260       C  0.29022015  0.68965475  0.16866374    -0.07190
C2261       C  0.27169765  0.69481795  0.16758793     0.06340
C2262       C  0.26697777  0.71351524  0.16642974    -0.02210
Br2263     Br  0.24206308  0.72169488  0.16354788    -0.01910
H2264       H  0.27717406  0.74110745  0.16558423     0.10250
H2265       H  0.29390126  0.67529267  0.16968046     0.08270
Br2266     Br  0.32904502  0.69483398  0.17104415    -0.02340
C2267       C  0.22175168  0.66640742  0.21420989    -0.08970
C2268       C  0.21656962  0.66639887  0.19567973     0.07230
C2269       C  0.19781975  0.66677747  0.19091903    -0.02740
C2270       C  0.18459697  0.66696384  0.20469685    -0.07190
C2271       C  0.18975353  0.66692513  0.22322192     0.06340
C2272       C  0.20850262  0.66662879  0.22800700    -0.02210
Br2273     Br  0.21675191  0.66559945  0.25301214    -0.01910
H2274       H  0.23616578  0.66602519  0.21793397     0.10250
H2275       H  0.17019142  0.66743884  0.20094916     0.08270
Br2276     Br  0.18947859  0.66814227  0.16595296    -0.02340
C2277       C  0.22068936  0.78594606  0.33572579    -0.08970
C2278       C  0.21600753  0.80451301  0.33400319     0.07230
C2279       C  0.19752051  0.80960178  0.33154657    -0.02740
C2280       C  0.18398117  0.79610113  0.33113923    -0.07190
C2281       C  0.18863389  0.77754575  0.33297747     0.06340
C2282       C  0.20713691  0.77242890  0.33528215    -0.02210
Br2283     Br  0.21449977  0.74738697  0.33882386    -0.01910
H2284       H  0.23491074  0.78200366  0.33767855     0.10250
H2285       H  0.16976720  0.80005639  0.32915836     0.08270
Br2286     Br  0.19013564  0.83459821  0.32773195    -0.02340
C2287       C  0.15929999  0.69151410  0.29499838    -0.08970
C2288       C  0.15946101  0.69675951  0.27650161     0.07230
C2289       C  0.15933665  0.71551208  0.27183014    -0.02740
C2290       C  0.15922145  0.72867354  0.28570506    -0.07190
C2291       C  0.15909795  0.72339939  0.30419910     0.06340
C2292       C  0.15917048  0.70465448  0.30885269    -0.02210
Br2293     Br  0.16019024  0.69622098  0.33379132    -0.01910
H2294       H  0.15960518  0.67711092  0.29866574     0.10250
H2295       H  0.15903410  0.74308844  0.28207365     0.08270
Br2296     Br  0.15841218  0.72389292  0.24687272    -0.02340
C2297       C  0.33338474  0.99628768  0.35518538    -0.08970
C2298       C  0.31509328  0.00043526  0.35063316     0.07230
C2299       C  0.31087506  0.00452334  0.33216127    -0.02740
C2300       C  0.32483100  0.00458468  0.31875211    -0.07190
C2301       C  0.34314848  0.00046432  0.32335940     0.06340
C2302       C  0.34730037  0.99633522  0.34180462    -0.02210
Br2303     Br  0.37199565  0.99134194  0.34945353    -0.01910
H2304       H  0.33690219  0.99318813  0.36928133     0.10250
H2305       H  0.32134101  0.00767986  0.30464143     0.08270
Br2306     Br  0.28612428  0.00941420  0.32455243    -0.02340
C2307       C  0.81005232  0.69902387  0.71407747    -0.08970
C2308       C  0.82648780  0.69639572  0.72373058     0.07230
C2309       C  0.84203333  0.70704264  0.71937780    -0.02740
C2310       C  0.84091250  0.72003147  0.70538479    -0.07190
C2311       C  0.82448388  0.72258090  0.69562002     0.06340
C2312       C  0.80894190  0.71191838  0.70004640    -0.02210
Br2313     Br  0.78624163  0.71332194  0.68674512    -0.01910
H2314       H  0.79812132  0.69068320  0.71721755     0.10250
H2315       H  0.85287778  0.72829817  0.70219278     0.08270
Br2316     Br  0.86479673  0.70497860  0.73254870    -0.02340
C2317       C  0.78941538  0.66803324  0.81081569    -0.08970
C2318       C  0.77098596  0.66771178  0.80518950     0.07230
C2319       C  0.76667011  0.66757200  0.78635136    -0.02740
C2320       C  0.78079477  0.66797961  0.77349086    -0.07190
C2321       C  0.79920138  0.66831872  0.77912672     0.06340
C2322       C  0.80353978  0.66834194  0.79793194    -0.02210
Br2323     Br  0.82838969  0.66964035  0.80669569    -0.01910
H2324       H  0.79280139  0.66828760  0.82528775     0.10250
H2325       H  0.77743307  0.66771588  0.75900949     0.08270
Br2326     Br  0.74189777  0.66576676  0.77740484    -0.02340
C2327       C  0.68364658  0.70505436  0.83108914    -0.08970
C2328       C  0.68900551  0.72343349  0.83289209     0.07230
C2329       C  0.70773920  0.72794575  0.83457452    -0.02740
C2330       C  0.72082371  0.71400606  0.83446930    -0.07190
C2331       C  0.71544623  0.69561159  0.83276195     0.06340
C2332       C  0.69671860  0.69113162  0.83090863    -0.02210
Br2333     Br  0.68835487  0.66642022  0.82709999    -0.01910
H2334       H  0.66924452  0.70157318  0.82954923     0.10250
H2335       H  0.73523014  0.71748495  0.83596435     0.08270
Br2336     Br  0.71606151  0.75273292  0.83791696    -0.02340
C2337       C  0.64893214  0.78978844  0.77569759    -0.08970
C2338       C  0.66027616  0.80518369  0.77773523     0.07230
C2339       C  0.67158946  0.80697837  0.79325895    -0.02740
C2340       C  0.67149767  0.79327666  0.80657460    -0.07190
C2341       C  0.66015949  0.77788740  0.80454113     0.06340
C2342       C  0.64883454  0.77608418  0.78902852    -0.02210
Br2343     Br  0.63342451  0.75501211  0.78541128    -0.01910
H2344       H  0.64027137  0.78840690  0.76367940     0.10250
H2345       H  0.68018252  0.79464446  0.81857778     0.08270
Br2346     Br  0.68699171  0.82803715  0.79694767    -0.02340
C2347       C  0.76588311  0.78845526  0.66391873    -0.08970
C2348       C  0.77140708  0.80641912  0.66791337     0.07230
C2349       C  0.79000784  0.81033005  0.67141157    -0.02740
C2350       C  0.80283534  0.79614125  0.67103430    -0.07190
C2351       C  0.79726067  0.77814574  0.66715947     0.06340
C2352       C  0.77870843  0.77432932  0.66336152    -0.02210
Br2353     Br  0.77041585  0.75034556  0.65638506    -0.01910
H2354       H  0.75158678  0.78549807  0.66095161     0.10250
H2355       H  0.81714806  0.79908848  0.67391775     0.08270
Br2356     Br  0.79833071  0.83460258  0.67737496    -0.02340
C2357       C  0.72047167  0.83590916  0.71358784    -0.08970
C2358       C  0.71542778  0.83313229  0.69524870     0.07230
C2359       C  0.69689731  0.83008800  0.69064639    -0.02740
C2360       C  0.68363964  0.83012413  0.70441334    -0.07190
C2361       C  0.68866599  0.83299957  0.72274491     0.06340
C2362       C  0.70721688  0.83591939  0.72736095    -0.02210
Br2363     Br  0.71500000  0.84089149  0.75202630    -0.01910
H2364       H  0.73473270  0.83834434  0.71713454     0.10250
H2365       H  0.66938015  0.82769056  0.70086071     0.08270
Br2366     Br  0.68916581  0.82496405  0.66598790    -0.02340
C2367       C  0.00321326  0.66532404  0.67921268    -0.08970
C2368       C  0.99184876  0.64977466  0.67726834     0.07230
C2369       C  0.98057419  0.64869518  0.66145963    -0.02740
C2370       C  0.98090964  0.66272381  0.64820479    -0.07190
C2371       C  0.99239510  0.67815987  0.65002315     0.06340
C2372       C  0.00349668  0.67941029  0.66595307    -0.02210
Br2373     Br  0.01847112  0.70052599  0.67103528    -0.01910
H2374       H  0.01176782  0.66667761  0.69130673     0.10250
H2375       H  0.97239146  0.66131955  0.63609828     0.08270
Br2376     Br  0.96531605  0.62780818  0.65634353    -0.02340
C2377       C  0.63764721  0.00536227  0.65917839    -0.08970
C2378       C  0.64216558  0.00036279  0.67724016     0.07230
C2379       C  0.66051393  0.99534084  0.68110979    -0.02740
C2380       C  0.67380256  0.99518540  0.66703831    -0.07190
C2381       C  0.66922182  0.00014089  0.64894628     0.06340
C2382       C  0.65090777  0.00522139  0.64514864    -0.02210
Br2383     Br  0.64320331  0.01132215  0.62075292    -0.01910
H2384       H  0.62364057  0.00916285  0.65590999     0.10250
H2385       H  0.68782341  0.99138552  0.67027677     0.08270
Br2386     Br  0.66818445  0.98937082  0.70557134    -0.02340
C2387       C  0.67259169  0.66585304  0.99109242    -0.08970
C2388       C  0.66942997  0.64918742  0.00034907     0.07230
C2389       C  0.65249662  0.64693112  0.00957522    -0.02740
C2390       C  0.63929977  0.66101255  0.00944265    -0.07190
C2391       C  0.64237117  0.67761940  0.00010828     0.06340
C2392       C  0.65938445  0.67998962  0.99100572    -0.02210
Br2393     Br  0.66580484  0.70266249  0.97922085    -0.01910
H2394       H  0.68555772  0.66800957  0.98411745     0.10250
H2395       H  0.62633637  0.65880871  0.01639484     0.08270
Br2396     Br  0.64608222  0.62440772  0.02160675    -0.02340
C2397       C  0.71956597  0.28583923  0.83714618    -0.08970
C2398       C  0.71479562  0.30409891  0.83352889     0.07230
C2399       C  0.69642704  0.30874542  0.82977448    -0.02740
C2400       C  0.68301733  0.29512203  0.82995739    -0.07190
C2401       C  0.68774143  0.27687508  0.83366837     0.06340
C2402       C  0.70613928  0.27218575  0.83728884    -0.02210
Br2403     Br  0.71340920  0.24759722  0.84329183    -0.01910
H2404       H  0.73371783  0.28227566  0.84008393     0.10250
H2405       H  0.66888271  0.29870763  0.82696238     0.08270
Br2406     Br  0.68915842  0.33326859  0.82349014    -0.02340
C2407       C  0.77918076  0.33261161  0.77361059    -0.08970
C2408       C  0.79770842  0.33186207  0.77878898     0.07230
C2409       C  0.80248823  0.33102380  0.79747847    -0.02740
C2410       C  0.78868094  0.33105916  0.81070331    -0.07190
C2411       C  0.77015027  0.33181705  0.80551943     0.06340
C2412       C  0.76538071  0.33267462  0.78681848    -0.02210
Br2413     Br  0.74040257  0.33496458  0.77860355    -0.01910
H2414       H  0.77547578  0.33344204  0.75923451     0.10250
H2415       H  0.79238061  0.33025879  0.82507919     0.08270
Br2416     Br  0.82749408  0.32890402  0.80560520    -0.02340
C2417       C  0.84006433  0.29413306  0.71998425    -0.08970
C2418       C  0.82424203  0.30478078  0.72245551     0.07230
C2419       C  0.80870966  0.30175573  0.71133139    -0.02740
C2420       C  0.80925813  0.28818390  0.69790239    -0.07190
C2421       C  0.82511731  0.27759530  0.69535525     0.06340
C2422       C  0.84059018  0.28051103  0.70659891    -0.02210
Br2423     Br  0.86234595  0.26571618  0.70495853    -0.01910
H2424       H  0.85196139  0.29629267  0.72867266     0.10250
H2425       H  0.79735979  0.28605374  0.68920694     0.08270
Br2426     Br  0.78682506  0.31633643  0.71320825    -0.02340
C2427       C  0.65861056  0.19032902  0.79612240    -0.08970
C2428       C  0.65936806  0.19569197  0.77766524     0.07230
C2429       C  0.65976676  0.21448219  0.77314199    -0.02740
C2430       C  0.65959147  0.22753561  0.78710097    -0.07190
C2431       C  0.65887919  0.22216005  0.80555130     0.06340
C2432       C  0.65839708  0.20338649  0.81007321    -0.02210
Br2433     Br  0.65848093  0.19478572  0.83497234    -0.01910
H2434       H  0.65847069  0.17589857  0.79968992     0.10250
H2435       H  0.65978862  0.24197280  0.78355453     0.08270
Br2436     Br  0.65956583  0.22314016  0.74825514    -0.02340
C2437       C  0.80262094  0.20436180  0.67017048    -0.08970
C2438       C  0.79722969  0.22253409  0.66706017     0.07230
C2439       C  0.77857137  0.22678412  0.66440451    -0.02740
C2440       C  0.76553197  0.21278870  0.66493455    -0.07190
C2441       C  0.77092291  0.19460081  0.66801397     0.06340
C2442       C  0.78957753  0.19037342  0.67075482    -0.02210
Br2443     Br  0.79774627  0.16594287  0.67621464    -0.01910
H2444       H  0.81697716  0.20112539  0.67241674     0.10250
H2445       H  0.75117373  0.21603979  0.66271335     0.08270
Br2446     Br  0.77039401  0.25129297  0.65929002    -0.02340
C2447       C  0.72065714  0.16536992  0.71412047    -0.08970
C2448       C  0.71535590  0.16699088  0.69570275     0.07230
C2449       C  0.69664468  0.16867934  0.69114754    -0.02740
C2450       C  0.68351786  0.16852271  0.70502376    -0.07190
C2451       C  0.68878974  0.16682320  0.72343739     0.06340
C2452       C  0.70751267  0.16521645  0.72801485    -0.02210
Br2453     Br  0.71575659  0.16185207  0.75280981    -0.01910
H2454       H  0.73505407  0.16395497  0.71765128     0.10250
H2455       H  0.66913140  0.16998646  0.70147150     0.08270
Br2456     Br  0.68837251  0.17217150  0.66637698    -0.02340
C2457       C  0.00259947  0.33487655  0.67950981    -0.08970
C2458       C  0.99179383  0.35071654  0.67708794     0.07230
C2459       C  0.98117937  0.35208920  0.66087551    -0.02740
C2460       C  0.98157793  0.33802549  0.64766526    -0.07190
C2461       C  0.99248419  0.32226677  0.64997505     0.06340
C2462       C  0.00292649  0.32073988  0.66631035    -0.02210
Br2463     Br  0.01696374  0.29917836  0.67198197    -0.01910
H2464       H  0.01064517  0.33334217  0.69192248     0.10250
H2465       H  0.97356555  0.33962364  0.63524652     0.08270
Br2466     Br  0.96678049  0.37341237  0.65528446    -0.02340
C2467       C  0.67374999  0.33290280  0.00316672    -0.08970
C2468       C  0.66894737  0.35133303  0.00000606     0.07230
C2469       C  0.65030992  0.35555497  0.99681091    -0.02740
C2470       C  0.63692610  0.34160582  0.99672754    -0.07190
C2471       C  0.64167390  0.32319693  0.99989789     0.06340
C2472       C  0.66033476  0.31891290  0.00308227    -0.02210
Br2473     Br  0.66814041  0.29406089  0.00679407    -0.01910
H2474       H  0.68800882  0.32935947  0.00554339     0.10250
H2475       H  0.62268554  0.34517653  0.99432680     0.08270
Br2476     Br  0.64246966  0.38035867  0.99300643    -0.02340
C2477       C  0.82622502  0.69029951  0.29611936    -0.08970
C2478       C  0.82559370  0.69569501  0.27766506     0.07230
C2479       C  0.82506340  0.71449430  0.27318099    -0.02740
C2480       C  0.82498852  0.72751341  0.28716895    -0.07190
C2481       C  0.82559240  0.72210576  0.30561219     0.06340
C2482       C  0.82620390  0.70332882  0.31009973    -0.02210
Br2483     Br  0.82603264  0.69467782  0.33498050    -0.01910
H2484       H  0.82646305  0.67586386  0.29965981     0.10250
H2485       H  0.82471882  0.74195606  0.28365013     0.08270
Br2486     Br  0.82545778  0.72324092  0.24832322    -0.02340
C2487       C  0.76504863  0.78617374  0.33655703    -0.08970
C2488       C  0.76999654  0.80436302  0.33276932     0.07230
C2489       C  0.78841140  0.80885669  0.32905452    -0.02740
C2490       C  0.80169695  0.79515147  0.32942816    -0.07190
C2491       C  0.79680100  0.77697513  0.33331992     0.06340
C2492       C  0.77835399  0.77243807  0.33690963    -0.02210
Br2493     Br  0.77086802  0.74796510  0.34317938    -0.01910
H2494       H  0.75085934  0.78273706  0.33948994     0.10250
H2495       H  0.81587268  0.79861975  0.32646579     0.08270
Br2496     Br  0.79590551  0.83329342  0.32264781    -0.02340
C2497       C  0.69633862  0.83096414  0.31008919    -0.08970
C2498       C  0.71477921  0.83235012  0.30476928     0.07230
C2499       C  0.71933110  0.83373615  0.28605784    -0.02740
C2500       C  0.70538639  0.83365750  0.27295863    -0.07190
C2501       C  0.68693015  0.83229441  0.27827607     0.06340
C2502       C  0.68239715  0.83083392  0.29699082    -0.02210
Br2503     Br  0.65757860  0.82763204  0.30532631    -0.01910
H2504       H  0.69282105  0.82970695  0.32447339     0.10250
H2505       H  0.70891769  0.83491235  0.25857651     0.08270
Br2506     Br  0.74420060  0.83666691  0.27775082    -0.02340
C2507       C  0.78755078  0.66854841  0.19108676    -0.08970
C2508       C  0.76917510  0.66657450  0.19643129     0.07230
C2509       C  0.76470585  0.66485774  0.21513589    -0.02740
C2510       C  0.77868830  0.66515707  0.22821154    -0.07190
C2511       C  0.79707911  0.66707369  0.22284143     0.06340
C2512       C  0.80150907  0.66890760  0.20413904    -0.02210
Br2513     Br  0.82620030  0.67294326  0.19576900    -0.01910
H2514       H  0.79099814  0.67010968  0.17671446     0.10250
H2515       H  0.77525119  0.66366259  0.24259279     0.08270
Br2516     Br  0.73992733  0.66123174  0.22342009    -0.02340
C2517       C  0.66093176  0.79602754  0.19031645    -0.08970
C2518       C  0.65976433  0.77755719  0.19551436     0.07230
C2519       C  0.65858392  0.77286000  0.21420897    -0.02740
C2520       C  0.65862749  0.78668939  0.22739947    -0.07190
C2521       C  0.65974973  0.80517061  0.22219573     0.06340
C2522       C  0.66101780  0.80985038  0.20350220    -0.02210
Br2523     Br  0.66389483  0.83472345  0.19529141    -0.01910
H2524       H  0.66206138  0.79966697  0.17595174     0.10250
H2525       H  0.65752085  0.78304585  0.24176579     0.08270
Br2526     Br  0.65597117  0.74794845  0.22239929    -0.02340
C2527       C  0.72003156  0.71318651  0.16581751    -0.08970
C2528       C  0.71445515  0.69487718  0.16772785     0.07230
C2529       C  0.69568162  0.69057094  0.16933262    -0.02740
C2530       C  0.68273908  0.70460410  0.16885923    -0.07190
C2531       C  0.68829222  0.72291379  0.16692930     0.06340
C2532       C  0.70707670  0.72723662  0.16534940    -0.02210
Br2533     Br  0.71563303  0.75189572  0.16167736    -0.01910
H2534       H  0.73448766  0.71650327  0.16445271     0.10250
H2535       H  0.66829392  0.70126977  0.17028520     0.08270
Br2536     Br  0.68711770  0.66593401  0.17311993    -0.02340
C2537       C  0.65732643  0.99094571  0.32043049    -0.08970
C2538       C  0.64065681  0.00019493  0.32366654     0.07230
C2539       C  0.63851378  0.00937732  0.34061446    -0.02740
C2540       C  0.65269985  0.00922535  0.35373448    -0.07190
C2541       C  0.66931195  0.99990821  0.35058519     0.06340
C2542       C  0.67156703  0.99083466  0.33356597    -0.02210
Br2543     Br  0.69422087  0.97906435  0.32703711    -0.01910
H2544       H  0.65940540  0.98399489  0.30746364     0.10250
H2545       H  0.65057581  0.01615549  0.36669834     0.08270
Br2546     Br  0.61600527  0.02136693  0.34716652    -0.02340
C2547       C  0.00368486  0.66160998  0.35273852    -0.08970
C2548       C  0.99245842  0.67718982  0.35077399     0.07230
C2549       C  0.98178124  0.67872791  0.33459302    -0.02740
C2550       C  0.98217915  0.66475052  0.32122624    -0.07190
C2551       C  0.99328443  0.64906487  0.32331671     0.06340
C2552       C  0.00415925  0.64770958  0.33936171    -0.02210
Br2553     Br  0.01904301  0.62661449  0.34453980    -0.01910
H2554       H  0.01190520  0.66001738  0.36502215     0.10250
H2555       H  0.97393555  0.66629079  0.30894439     0.08270
Br2556     Br  0.96731455  0.70011187  0.32933861    -0.02340
C2557       C  0.82498471  0.27269770  0.28638026    -0.08970
C2558       C  0.82419669  0.27803941  0.30483265     0.07230
C2559       C  0.82352079  0.29679838  0.30939521    -0.02740
C2560       C  0.82380210  0.30989584  0.29548606    -0.07190
C2561       C  0.82461510  0.30456190  0.27703739     0.06340
C2562       C  0.82525500  0.28580064  0.27246462    -0.02210
Br2563     Br  0.82746606  0.27736260  0.24760737    -0.01910
H2564       H  0.82566727  0.25827929  0.28282235     0.10250
H2565       H  0.82310268  0.32431151  0.29904887     0.08270
Br2566     Br  0.82121926  0.30525251  0.33423501    -0.02340
C2567       C  0.78655436  0.33227516  0.19063476    -0.08970
C2568       C  0.76823913  0.33449346  0.19610824     0.07230
C2569       C  0.76391923  0.33608260  0.21485906    -0.02740
C2570       C  0.77797521  0.33544583  0.22783752    -0.07190
C2571       C  0.79629639  0.33334380  0.22233110     0.06340
C2572       C  0.80058843  0.33161898  0.20359802    -0.02210
Br2573     Br  0.82519584  0.32744432  0.19509157    -0.01910
H2574       H  0.78989565  0.33080088  0.17622911     0.10250
H2575       H  0.77465867  0.33687281  0.24225329     0.08270
Br2576     Br  0.73927793  0.34006032  0.22335756    -0.02340
C2577       C  0.71913928  0.28894096  0.16443047    -0.08970
C2578       C  0.71322914  0.30700679  0.16715011     0.07230
C2579       C  0.69439933  0.31080925  0.16921818    -0.02740
C2580       C  0.68176433  0.29641029  0.16889590    -0.07190
C2581       C  0.68773612  0.27830671  0.16643946     0.06340
C2582       C  0.70651031  0.27460660  0.16386902    -0.02210
Br2583     Br  0.71544832  0.25047103  0.15851337    -0.01910
H2584       H  0.73361288  0.28604396  0.16249341     0.10250
H2585       H  0.66728130  0.29928581  0.17076985     0.08270
Br2586     Br  0.68543731  0.33523167  0.17323745    -0.02340
C2587       C  0.64354276  0.22035995  0.20525190    -0.08970
C2588       C  0.66036611  0.22337567  0.19630977     0.07230
C2589       C  0.67597341  0.21328312  0.20167877    -0.02740
C2590       C  0.67448490  0.20036964  0.21563540    -0.07190
C2591       C  0.65764270  0.19716087  0.22436482     0.06340
C2592       C  0.64205784  0.20734945  0.21920157    -0.02210
Br2593     Br  0.61868792  0.20456443  0.23109738    -0.01910
H2594       H  0.63150734  0.22818975  0.20135980     0.10250
H2595       H  0.68647581  0.19239681  0.21937853     0.08270
Br2596     Br  0.69935372  0.21530231  0.18974573    -0.02340
C2597       C  0.78616010  0.19093021  0.33119612    -0.08970
C2598       C  0.76783120  0.19644848  0.33322889     0.07230
C2599       C  0.76358184  0.21523090  0.33477947    -0.02740
C2600       C  0.77770197  0.22816290  0.33429544    -0.07190
C2601       C  0.79603486  0.22261043  0.33240695     0.06340
C2602       C  0.80026208  0.20385040  0.33071784    -0.02210
Br2603     Br  0.82487702  0.19522038  0.32685782    -0.01910
H2604       H  0.78947123  0.17651091  0.32976279     0.10250
H2605       H  0.77442002  0.24258984  0.33572095     0.08270
Br2606     Br  0.73896680  0.22387878  0.33859860    -0.02340
C2607       C  0.71691610  0.16806236  0.28809812    -0.08970
C2608       C  0.71174891  0.16831301  0.30660651     0.07230
C2609       C  0.69299081  0.16841252  0.31137006    -0.02740
C2610       C  0.67972301  0.16816694  0.29757610    -0.07190
C2611       C  0.68492575  0.16803655  0.27909055     0.06340
C2612       C  0.70366594  0.16789302  0.27432527    -0.02210
Br2613     Br  0.71187696  0.16668086  0.24931643    -0.01910
H2614       H  0.73132752  0.16779371  0.28437184     0.10250
H2615       H  0.66530072  0.16843712  0.30125065     0.08270
Br2616     Br  0.68476109  0.16997228  0.33633707    -0.02340
C2617       C  0.00167349  0.33938317  0.35355524    -0.08970
C2618       C  0.99218119  0.32283379  0.35054351     0.07230
C2619       C  0.98298084  0.32052627  0.33358055    -0.02740
C2620       C  0.98313552  0.33466105  0.32036877    -0.07190
C2621       C  0.99255384  0.35127145  0.32346863     0.06340
C2622       C  0.00187240  0.35346339  0.34035738    -0.02210
Br2623     Br  0.01412140  0.37590104  0.34673605    -0.01910
H2624       H  0.00870495  0.34154509  0.36647392     0.10250
H2625       H  0.97608430  0.33254279  0.30744682     0.08270
Br2626     Br  0.97097040  0.29793430  0.32722321    -0.02340
C2627       C  0.17180286  0.49099119  0.83476778    -0.08970
C2628       C  0.16890414  0.50055151  0.85130287     0.07230
C2629       C  0.15213671  0.51009788  0.85345986    -0.02740
C2630       C  0.13886292  0.50997130  0.83942345    -0.07190
C2631       C  0.14167144  0.50033664  0.82295132     0.06340
C2632       C  0.15851649  0.49091213  0.82067499    -0.02210
Br2633     Br  0.16463713  0.47869066  0.79817068    -0.01910
H2634       H  0.18463603  0.48377236  0.83266792     0.10250
H2635       H  0.12603657  0.51717840  0.84156343     0.08270
Br2636     Br  0.14600728  0.52258829  0.87579437    -0.02340
C2637       C  0.50301743  0.17910731  0.83576334    -0.08970
C2638       C  0.49156093  0.17702543  0.85119962     0.07230
C2639       C  0.48043971  0.16110972  0.85218234    -0.02740
C2640       C  0.48102663  0.14785052  0.83817578    -0.07190
C2641       C  0.49259757  0.14980466  0.82284310     0.06340
C2642       C  0.50352679  0.16586232  0.82167601    -0.02210
Br2643     Br  0.51851587  0.17114717  0.80065631    -0.01910
H2644       H  0.51145752  0.19129682  0.83449955     0.10250
H2645       H  0.47261079  0.13565773  0.83949655     0.08270
Br2646     Br  0.46503420  0.15592047  0.87290350    -0.02340
C2647       C  0.48665523  0.14591365  0.15943483    -0.08970
C2648       C  0.49200463  0.15012112  0.17747775     0.07230
C2649       C  0.49744884  0.16831228  0.18146463    -0.02740
C2650       C  0.49767406  0.18174247  0.16752870    -0.07190
C2651       C  0.49235931  0.17747784  0.14945238     0.06340
C2652       C  0.48686333  0.15931405  0.14553903    -0.02210
Br2653     Br  0.48033965  0.15195611  0.12114154    -0.01910
H2654       H  0.48253386  0.13203378  0.15606859     0.10250
H2655       H  0.50180690  0.19563244  0.17086711     0.08270
Br2656     Br  0.50389913  0.17559643  0.20592444    -0.02340
C2657       C  0.13929215  0.51008339  0.16081327    -0.08970
C2658       C  0.14209170  0.50016129  0.17711941     0.07230
C2659       C  0.15881112  0.49045836  0.17914841    -0.02740
C2660       C  0.17197506  0.49054878  0.16496998    -0.07190
C2661       C  0.16907933  0.50038615  0.14859294     0.06340
C2662       C  0.15244499  0.51022131  0.14669058    -0.02210
Br2663     Br  0.14629295  0.52313213  0.12459046    -0.01910
H2664       H  0.12655602  0.51750576  0.15886354     0.10250
H2665       H  0.18471334  0.48310811  0.16687819     0.08270
Br2666     Br  0.16494727  0.47781074  0.20142380    -0.02340
C2667       C  0.84779780  0.49544694  0.15913092    -0.08970
C2668       C  0.84321852  0.50016700  0.17724492     0.07230
C2669       C  0.82480033  0.50485974  0.18115777    -0.02740
C2670       C  0.81149040  0.50494206  0.16708279    -0.07190
C2671       C  0.81612287  0.50023473  0.14894233     0.06340
C2672       C  0.83451868  0.49551975  0.14509621    -0.02210
Br2673     Br  0.84229941  0.48984672  0.12063471    -0.01910
H2674       H  0.86185923  0.49189844  0.15583280     0.10250
H2675       H  0.79741709  0.50849760  0.17035267     0.08270
Br2676     Br  0.81708897  0.51050067  0.20567148    -0.02340
C2677       C  0.50218257  0.83477721  0.17962626    -0.08970
C2678       C  0.49144051  0.85066758  0.17720979     0.07230
C2679       C  0.48101527  0.85218642  0.16088604    -0.02740
C2680       C  0.48152590  0.83821681  0.14758144    -0.07190
C2681       C  0.49237009  0.82241544  0.14988944     0.06340
C2682       C  0.50263227  0.82074259  0.16631984    -0.02210
Br2683     Br  0.51658391  0.79911723  0.17195611    -0.01910
H2684       H  0.51009328  0.83312719  0.19210996     0.10250
H2685       H  0.47364834  0.83992202  0.13509114     0.08270
Br2686     Br  0.46675274  0.87358961  0.15525055    -0.02340
C2687       C  0.15330529  0.85382801  0.49102758    -0.08970
C2688       C  0.17008767  0.85064236  0.50004092     0.07230
C2689       C  0.17264664  0.83348666  0.50877050    -0.02740
C2690       C  0.15851784  0.82023005  0.50863424    -0.07190
C2691       C  0.14168428  0.82350089  0.49968245     0.06340
C2692       C  0.13923837  0.84058484  0.49083809    -0.02210
Br2693     Br  0.11649233  0.84709572  0.47924142    -0.01910
H2694       H  0.15096765  0.86689644  0.48436146     0.10250
H2695       H  0.16081014  0.80715156  0.51530928     0.08270
Br2696     Br  0.19556212  0.82696978  0.52006939    -0.02340
C2697       C  0.81038398  0.16798611  0.49676630    -0.08970
C2698       C  0.81504423  0.14952980  0.49997436     0.07230
C2699       C  0.83363464  0.14517053  0.50324636    -0.02740
C2700       C  0.84712025  0.15901665  0.50334115    -0.07190
C2701       C  0.84251751  0.17744895  0.50010174     0.06340
C2702       C  0.82390042  0.18187230  0.49686277    -0.02210
Br2703     Br  0.81629388  0.20677428  0.49307087    -0.01910
H2704       H  0.79616164  0.17162697  0.49431981     0.10250
H2705       H  0.86132704  0.15534535  0.50578878     0.08270
Br2706     Br  0.84127446  0.12031409  0.50711734    -0.02340
C2707       C  0.50333177  0.85292675  0.83820931    -0.08970
C2708       C  0.49260725  0.85058883  0.82231601     0.07230
C2709       C  0.48227392  0.83419350  0.82061514    -0.02740
C2710       C  0.48253380  0.82094590  0.83471269    -0.07190
C2711       C  0.49315618  0.82339346  0.85069307     0.06340
C2712       C  0.50364979  0.83968152  0.85224421    -0.02210
Br2713     Br  0.51775235  0.84532589  0.87377410    -0.01910
H2714       H  0.51125884  0.86539494  0.83993088     0.10250
H2715       H  0.47458076  0.80848053  0.83304027     0.08270
Br2716     Br  0.46848361  0.82853699  0.79886946    -0.02340
C2717       C  0.84627975  0.50924888  0.84010899    -0.08970
C2718       C  0.84328090  0.50001237  0.82344086     0.07230
C2719       C  0.82621475  0.49103754  0.82086014    -0.02740
C2720       C  0.81286451  0.49116733  0.83485903    -0.07190
C2721       C  0.81594847  0.50033655  0.85158496     0.06340
C2722       C  0.83294679  0.50941875  0.85405442    -0.02210
Br2723     Br  0.83925491  0.52129939  0.87668597    -0.01910
H2724       H  0.85928434  0.51610209  0.84246160     0.10250
H2725       H  0.79985360  0.48429862  0.83254817     0.08270
Br2726     Br  0.81993232  0.47938068  0.79808430    -0.02340
C2727       C  0.82465784  0.81864488  0.50021592    -0.08970
C2728       C  0.84336326  0.82355116  0.50002659     0.07230
C2729       C  0.84797368  0.84234790  0.49984846    -0.02740
C2730       C  0.83413248  0.85581309  0.49984441    -0.07190
C2731       C  0.81544649  0.85095551  0.50002377     0.06340
C2732       C  0.81077893  0.83213871  0.50020802    -0.02210
Br2733     Br  0.78560754  0.82432197  0.50042021    -0.01910
H2734       H  0.82083656  0.80427570  0.50035954     0.10250
H2735       H  0.83798085  0.87016792  0.49970156     0.08270
Br2736     Br  0.87311073  0.85020130  0.49964833    -0.02340
loop_ 
_geom_bond_atom_site_label_1 
_geom_bond_atom_site_label_2 
_geom_bond_distance 
_geom_bond_site_symmetry_2 
_ccdc_geom_bond_type 
C1            C2   1.406       .  A
C1            C6   1.405       .  A
C1         C2728   1.497       .  S
C2            C3   1.416       .  A
C2            H7   1.082       .  S
C3            C4   1.406       .  A
C3          C595   1.492       .  S
C4            C5   1.405       .  A
C4            H8   1.082       .  S
C5            C6   1.415       .  A
C5         C1081   1.490       .  S
C6            H9   1.082       .  S
C10          C11   1.406       .  A
C10          C15   1.405       .  A
C10        C2731   1.497       .  S
C11          C12   1.416       .  A
C11          H16   1.082       .  S
C12          C13   1.405       .  A
C12         C949   1.491       .  S
C13          C14   1.405       .  A
C13          H17   1.082       .  S
C14          C15   1.415       .  A
C14         C529   1.491       .  S
C15          H18   1.082       .  S
C19          C20   1.407       .  A
C19          C24   1.407       .  A
C19        C2718   1.503       .  S
C20          C21   1.414       .  A
C20          H25   1.082       .  S
C21          C22   1.404       .  A
C21         C763   1.488       .  S
C22          C23   1.404       .  A
C22          H26   1.083       .  S
C23          C24   1.414       .  A
C23        C1114   1.489       .  S
C24          H27   1.083       .  S
C28          C29   1.407       .  A
C28          C33   1.407       .  A
C28        C2721   1.503       .  S
C29          C30   1.415       .  A
C29          H34   1.082       .  S
C30          C31   1.405       .  A
C30         C829   1.489       .  S
C31          C32   1.404       .  A
C31          H35   1.082       .  S
C32          C33   1.414       .  A
C32        C1065   1.489       .  S
C33          H36   1.082       .  S
C37          C38   1.408       .  A
C37          C42   1.408       .  A
C37        C2708   1.506       .  S
C38          C39   1.415       .  A
C38          H43   1.082       .  S
C39          C40   1.404       .  A
C39         C999   1.490       .  S
C40          C41   1.404       .  A
C40          H44   1.082       .  S
C41          C42   1.415       .  A
C41        C1531   1.491       .  S
C42          H45   1.082       .  S
C46          C47   1.409       .  A
C46          C51   1.408       .  A
C46        C2711   1.507       .  S
C47          C48   1.416       .  A
C47          H52   1.082       .  S
C48          C49   1.405       .  A
C48        C1465   1.491       .  S
C49          C50   1.404       .  A
C49          H53   1.082       .  S
C50          C51   1.414       .  A
C50        C1032   1.490       .  S
C51          H54   1.082       .  S
C55          C56   1.405       .  A
C55          C60   1.406       .  A
C55        C2701   1.497       .  S
C56          C57   1.415       .  A
C56          H61   1.082       .  S
C57          C58   1.405       .  A
C57         C813   1.490       .  S
C58          C59   1.405       .  A
C58          H62   1.082       .  S
C59          C60   1.415       .  A
C59         C378   1.491       .  S
C60          H63   1.082       .  S
C64          C65   1.406       .  A
C64          C69   1.406       .  A
C64        C2698   1.497       .  S
C65          C66   1.416       .  A
C65          H70   1.082       .  S
C66          C67   1.405       .  A
C66         C237   1.491       .  S
C67          C68   1.405       .  A
C67          H71   1.082       .  S
C68          C69   1.415       .  A
C68         C705   1.490       .  S
C69          H72   1.082       .  S
C73          C74   1.407       .  A
C73          C78   1.407       .  A
C73        C2688   1.503       .  S
C74          C75   1.415       .  A
C74          H79   1.082       .  S
C75          C76   1.404       .  A
C75        C1297   1.490       .  S
C76          C77   1.404       .  A
C76          H80   1.082       .  S
C77          C78   1.415       .  A
C77        C1564   1.489       .  S
C78          H81   1.082       .  S
C82          C83   1.408       .  A
C82          C87   1.407       .  A
C82        C2691   1.503       .  S
C83          C84   1.416       .  A
C83          H88   1.082       .  S
C84          C85   1.405       .  A
C84        C1423   1.490       .  S
C85          C86   1.404       .  A
C85          H89   1.082       .  S
C86          C87   1.414       .  A
C86        C1173   1.490       .  S
C87          H90   1.082       .  S
C91          C92   1.408       .  A
C91          C96   1.409       .  A
C91        C2678   1.507       .  S
C92          C93   1.415       .  A
C92          H97   1.082       .  S
C93          C94   1.404       .  A
C93         C562   1.490       .  S
C94          C95   1.404       .  A
C94          H98   1.082       .  S
C95          C96   1.415       .  A
C95        C1330   1.492       .  S
C96          H99   1.082       .  S
C100        C101   1.409       .  A
C100        C105   1.409       .  A
C100       C2681   1.507       .  S
C101        C102   1.415       .  A
C101        H106   1.082       .  S
C102        C103   1.404       .  A
C102       C1222   1.491       .  S
C103        C104   1.404       .  A
C103        H107   1.082       .  S
C104        C105   1.415       .  A
C104        C454   1.490       .  S
C105        H108   1.082       .  S
C109        C110   1.406       .  A
C109        C114   1.407       .  A
C109       C2668   1.498       .  S
C110        C111   1.415       .  A
C110        H115   1.082       .  S
C111        C112   1.405       .  A
C111        C394   1.490       .  S
C112        C113   1.405       .  A
C112        H116   1.082       .  S
C113        C114   1.416       .  A
C113        C645   1.491       .  S
C114        H117   1.082       .  S
C118        C119   1.406       .  A
C118        C123   1.407       .  A
C118       C2671   1.499       .  S
C119        C120   1.415       .  A
C119        H124   1.082       .  S
C120        C121   1.405       .  A
C120        C487   1.490       .  S
C121        C122   1.405       .  A
C121        H125   1.082       .  S
C122        C123   1.415       .  A
C122        C303   1.491       .  S
C123        H126   1.082       .  S
C127        C128   1.408       .  A
C127        C132   1.408       .  A
C127       C2658   1.504       .  S
C128        C129   1.414       .  A
C128        H133   1.082       .  S
C129        C130   1.404       .  A
C129       C1206   1.489       .  S
C130        C131   1.405       .  A
C130        H134   1.082       .  S
C131        C132   1.415       .  A
C131       C1920   1.490       .  S
C132        H135   1.082       .  S
C136        C137   1.408       .  A
C136        C141   1.408       .  A
C136       C2661   1.505       .  S
C137        C138   1.416       .  A
C137        H142   1.082       .  S
C138        C139   1.404       .  A
C138       C1887   1.489       .  S
C139        C140   1.403       .  A
C139        H143   1.082       .  S
C140        C141   1.414       .  A
C140       C1272   1.489       .  S
C141        H144   1.082       .  S
C145        C146   1.406       .  A
C145        C150   1.407       .  A
C145       C2648   1.500       .  S
C146        C147   1.415       .  A
C146        H151   1.082       .  S
C147        C148   1.405       .  A
C147       C1854   1.490       .  S
C148        C149   1.405       .  A
C148        H152   1.082       .  S
C149        C150   1.416       .  A
C149        C253   1.493       .  S
C150        H153   1.082       .  S
C154        C155   1.406       .  A
C154        C159   1.407       .  A
C154       C2651   1.500       .  S
C155        C156   1.416       .  A
C155        H160   1.082       .  S
C156        C157   1.406       .  A
C156        C336   1.492       .  S
C157        C158   1.405       .  A
C157        H161   1.082       .  S
C158        C159   1.415       .  A
C158       C1821   1.491       .  S
C159        H162   1.082       .  S
C163        C164   1.409       .  A
C163        C168   1.409       .  A
C163       C2638   1.507       .  S
C164        C165   1.414       .  A
C164        H169   1.082       .  S
C165        C166   1.403       .  A
C165       C1797   1.489       .  S
C166        C167   1.403       .  A
C166        H170   1.082       .  S
C167        C168   1.415       .  A
C167        C879   1.488       .  S
C168        H171   1.082       .  S
C172        C173   1.409       .  A
C172        C177   1.409       .  A
C172       C2641   1.507       .  S
C173        C174   1.415       .  A
C173        H178   1.082       .  S
C174        C175   1.404       .  A
C174        C721   1.489       .  S
C175        C176   1.403       .  A
C175        H179   1.082       .  S
C176        C177   1.414       .  A
C176       C1689   1.489       .  S
C177        H180   1.082       .  S
C181        C182   1.408       .  A
C181        C186   1.408       .  A
C181       C2628   1.505       .  S
C182        C183   1.414       .  A
C182        H187   1.082       .  S
C183        C184   1.404       .  A
C183       C1515   1.490       .  S
C184        C185   1.405       .  A
C184        H188   1.082       .  S
C185        C186   1.416       .  A
C185       C1747   1.490       .  S
C186        H189   1.082       .  S
C190        C191   1.408       .  A
C190        C195   1.408       .  A
C190       C2631   1.505       .  S
C191        C192   1.415       .  A
C191        H196   1.082       .  S
C192        C193   1.404       .  A
C192       C1623   1.489       .  S
C193        C194   1.404       .  A
C193        H197   1.082       .  S
C194        C195   1.415       .  A
C194       C1407   1.491       .  S
C195        H198   1.082       .  S
C199        C200   1.408   1_655  A
C199        C204   1.408       .  A
C199       C2618   1.505       .  S
C200        C201   1.415       .  A
C200        H205   1.082       .  S
C201        C202   1.404   1_455  A
C201       C1986   1.491       .  S
C202        C203   1.404       .  A
C202        H206   1.082       .  S
C203        C204   1.415       .  A
C203        C361   1.490       .  S
C204        H207   1.082       .  S
C208        C209   1.408       .  A
C208        C213   1.408   1_655  A
C208       C2621   1.505       .  S
C209        C210   1.416       .  A
C209        H214   1.082       .  S
C210        C211   1.404       .  A
C210        C411   1.490       .  S
C211        C212   1.404   1_655  A
C211        H215   1.082       .  S
C212        C213   1.414       .  A
C212       C1903   1.490       .  S
C213        H216   1.082       .  S
N217        N218   1.323       .  A
N217        C221   1.354       .  A
N217       Cu225   2.127       .  S
N218        C219   1.340       .  A
N218       Cu224   2.046       .  S
C219        C220   1.378       .  A
C219        H222   1.082       .  S
C220        C221   1.398       .  A
C220        C435   1.490       .  S
C221        H223   1.081       .  S
Cu224       N227   2.045       .  S
Cu225       N235   2.127       .  S
Cu226       N228   2.045       .  S
Cu226       N234   2.046       .  S
N227        N228   1.316       .  A
N227        C231   1.340       .  A
N228        C229   1.340       .  A
C229        C230   1.385       .  A
C229        H232   1.082       .  S
C230        C231   1.385       .  A
C230        C243   1.473       .  S
C231        H233   1.081       .  S
N234        N235   1.323       .  A
N234        C238   1.340       .  A
N235        C236   1.353       .  A
C236        C237   1.399       .  A
C236        H239   1.081       .  S
C237        C238   1.379       .  A
C238        H240   1.082       .  S
C241        C242   1.399       .  A
C241        C246   1.396       .  A
C241       C2598   1.467       .  S
C242        C243   1.402       .  A
C242        H247   1.082       .  S
C243        C244   1.402       .  A
C244        C245   1.398       .  A
C244        H248   1.082       .  S
C245        C246   1.397       .  A
C245       C2608   1.466       .  S
C246        H249   1.084       .  S
N250        N251   1.323       .  A
N250        C254   1.353       .  A
N250       Cu258   2.128       .  S
N251        C252   1.340       .  A
N251       Cu257   2.046       .  S
C252        C253   1.379       .  A
C252        H255   1.082       .  S
C253        C254   1.400       .  A
C254        H256   1.081       .  S
Cu257       N260   2.045       .  S
Cu258       N268   2.128       .  S
Cu259       N261   2.045       .  S
Cu259       N267   2.046       .  S
N260        N261   1.316       .  A
N260        C264   1.340       .  A
N261        C262   1.340       .  A
C262        C263   1.385       .  A
C262        H265   1.081       .  S
C263        C264   1.385       .  A
C263        C278   1.474       .  S
C264        H266   1.082       .  S
N267        N268   1.323       .  A
N267        C271   1.340       .  A
N268        C269   1.354       .  A
C269        C270   1.399       .  A
C269        H272   1.082       .  S
C270        C271   1.378       .  A
C270        C444   1.490       .  S
C271        H273   1.082       .  S
C274        C275   1.396       .  A
C274        C279   1.399       .  A
C274       C2591   1.468       .  S
C275        C276   1.394       .  A
C275        H280   1.084       .  S
C276        C277   1.397       .  A
C276       C2611   1.463       .  S
C277        C278   1.403       .  A
C277        H281   1.082       .  S
C278        C279   1.403       .  A
C279        H282   1.082       .  S
N283        N284   1.323       .  A
N283        C287   1.354       .  A
N283       Cu291   2.129       .  S
N284        C285   1.340       .  A
N284       Cu290   2.042       .  S
C285        C286   1.378       .  A
C285        H288   1.082       .  S
C286        C287   1.399       .  A
C286        C651   1.490       .  S
C287        H289   1.081       .  S
Cu290       N293   2.041       .  S
Cu291       N301   2.129       .  S
Cu292       N294   2.046       .  S
Cu292       N300   2.047       .  S
N293        N294   1.316       .  A
N293        C297   1.339       .  A
N294        C295   1.340       .  A
C295        C296   1.386       .  A
C295        H298   1.082       .  S
C296        C297   1.384       .  A
C296        C311   1.473       .  S
C297        H299   1.081       .  S
N300        N301   1.323       .  A
N300        C304   1.340       .  A
N301        C302   1.354       .  A
C302        C303   1.399       .  A
C302        H305   1.081       .  S
C303        C304   1.379       .  A
C304        H306   1.082       .  S
C307        C308   1.395       .  A
C307        C312   1.397       .  A
C307       C2578   1.462       .  S
C308        C309   1.395       .  A
C308        H313   1.084       .  S
C309        C310   1.398       .  A
C309       C2568   1.465       .  S
C310        C311   1.402       .  A
C310        H314   1.082       .  S
C311        C312   1.403       .  A
C312        H315   1.082       .  S
N316        N317   1.323       .  A
N316        C320   1.354       .  A
N316       Cu324   2.128       .  S
N317        C318   1.340       .  A
N317       Cu323   2.043       .  S
C318        C319   1.378       .  A
C318        H321   1.083       .  S
C319        C320   1.399       .  A
C319        C660   1.489       .  S
C320        H322   1.081       .  S
Cu323       N326   2.042       .  S
Cu324       N334   2.128       .  S
Cu325       N327   2.049       .  S
Cu325       N333   2.050       .  S
N326        N327   1.317       .  A
N326        C330   1.339       .  A
N327        C328   1.341       .  A
C328        C329   1.386       .  A
C328        H331   1.082       .  S
C329        C330   1.384       .  A
C329        C344   1.473       .  S
C330        H332   1.081       .  S
N333        N334   1.323       .  A
N333        C337   1.341       .  A
N334        C335   1.353       .  A
C335        C336   1.399       .  A
C335        H338   1.081       .  S
C336        C337   1.379       .  A
C337        H339   1.082       .  S
C340        C341   1.399       .  A
C340        C345   1.401       .  A
C340       C2588   1.471       .  S
C341        C342   1.397       .  A
C341        H346   1.084       .  S
C342        C343   1.396       .  A
C342       C2581   1.463       .  S
C343        C344   1.402       .  A
C343        H347   1.082       .  S
C344        C345   1.402       .  A
C345        H348   1.083       .  S
C349        C350   1.397       .  A
C349        C354   1.399       .  A
C349       C2558   1.466       .  S
C350        C351   1.396       .  A
C350        H355   1.084       .  S
C351        C352   1.399       .  A
C351       C2601   1.466       .  S
C352        C353   1.402       .  A
C352        H356   1.082       .  S
C353        C354   1.402       .  A
C353        C371   1.473       .  S
C354        H357   1.082       .  S
N358        N359   1.323       .  A
N358        C362   1.353       .  A
N358       Cu366   2.126       .  S
N359        C360   1.340       .  A
N359       Cu365   2.047       .  S
C360        C361   1.378       .  A
C360        H363   1.082       .  S
C361        C362   1.398       .  A
C362        H364   1.081       .  S
Cu365       N368   2.046       .  S
Cu366       N376   2.126       .  S
Cu367       N369   2.047       .  S
Cu367       N375   2.048       .  S
N368        N369   1.316       .  A
N368        C372   1.340       .  A
N369        C370   1.340       .  A
C370        C371   1.385       .  A
C370        H373   1.082       .  S
C371        C372   1.385       .  A
C372        H374   1.082       .  S
N375        N376   1.323       .  A
N375        C379   1.340       .  A
N376        C377   1.353       .  A
C377        C378   1.398       .  A
C377        H380   1.081       .  S
C378        C379   1.379       .  A
C379        H381   1.082       .  S
C382        C383   1.396       .  A
C382        C387   1.399       .  A
C382       C2561   1.466       .  S
C383        C384   1.395       .  A
C383        H388   1.084       .  S
C384        C385   1.398       .  A
C384       C2571   1.464       .  S
C385        C386   1.402       .  A
C385        H389   1.082       .  S
C386        C387   1.403       .  A
C386        C404   1.474       .  S
C387        H390   1.082       .  S
N391        N392   1.323       .  A
N391        C395   1.353       .  A
N391       Cu399   2.125       .  S
N392        C393   1.340       .  A
N392       Cu398   2.048       .  S
C393        C394   1.379       .  A
C393        H396   1.082       .  S
C394        C395   1.398       .  A
C395        H397   1.081       .  S
Cu398       N401   2.047       .  S
Cu399       N409   2.125       .  S
Cu400       N402   2.046       .  S
Cu400       N408   2.047       .  S
N401        N402   1.317       .  A
N401        C405   1.340       .  A
N402        C403   1.340       .  A
C403        C404   1.385       .  A
C403        H406   1.081       .  S
C404        C405   1.385       .  A
C405        H407   1.082       .  S
N408        N409   1.323       .  A
N408        C412   1.341       .  A
N409        C410   1.353       .  A
C410        C411   1.398       .  A
C410        H413   1.081       .  S
C411        C412   1.379       .  A
C412        H414   1.082       .  S
C415        C416   1.409       .  A
C415        C420   1.409   1_655  A
C415       C2548   1.507       .  S
C416        C417   1.415       .  A
C416        H421   1.082       .  S
C417        C418   1.403       .  A
C417        C612   1.488       .  S
C418        C419   1.403   1_655  A
C418        H422   1.082       .  S
C419        C420   1.414       .  A
C419       C1156   1.488       .  S
C420        H423   1.083       .  S
C424        C425   1.409   1_655  A
C424        C429   1.409       .  A
C424       C2551   1.507       .  S
C425        C426   1.414       .  A
C425        H430   1.082       .  S
C426        C427   1.403   1_455  A
C426       C1189   1.489       .  S
C427        C428   1.404       .  A
C427        H431   1.082       .  S
C428        C429   1.415       .  A
C428        C628   1.489       .  S
C429        H432   1.082       .  S
C433        C434   1.408   1_565  A
C433        C438   1.408       .  A
C433       C2541   1.505       .  S
C434        C435   1.415       .  A
C434        H439   1.082       .  S
C435        C436   1.404   1_545  A
C436        C437   1.404       .  A
C436        H440   1.082       .  S
C437        C438   1.415       .  A
C437        C546   1.490       .  S
C438        H441   1.082       .  S
C442        C443   1.408       .  A
C442        C447   1.408   1_545  A
C442       C2538   1.505       .  S
C443        C444   1.414       .  A
C443        H448   1.082       .  S
C444        C445   1.404   1_545  A
C445        C446   1.405       .  A
C445        H449   1.082       .  S
C446        C447   1.416       .  A
C446        C579   1.490       .  S
C447        H450   1.082       .  S
N451        N452   1.323       .  A
N451        C455   1.353       .  A
N451       Cu459   2.126       .  S
N452        C453   1.340       .  A
N452       Cu458   2.045       .  S
C453        C454   1.378       .  A
C453        H456   1.082       .  S
C454        C455   1.398       .  A
C455        H457   1.081       .  S
Cu458       N461   2.044       .  S
Cu459       N469   2.126       .  S
Cu460       N462   2.047       .  S
Cu460       N468   2.048       .  S
N461        N462   1.316       .  A
N461        C465   1.340       .  A
N462        C463   1.340       .  A
C463        C464   1.386       .  A
C463        H466   1.082       .  S
C464        C465   1.385       .  A
C464        C477   1.474       .  S
C465        H467   1.082       .  S
N468        N469   1.323       .  A
N468        C472   1.340       .  A
N469        C470   1.353       .  A
C470        C471   1.398       .  A
C470        H473   1.081       .  S
C471        C472   1.379       .  A
C471        C894   1.491       .  S
C472        H474   1.082       .  S
C475        C476   1.398       .  A
C475        C480   1.395       .  A
C475       C2531   1.463       .  S
C476        C477   1.402       .  A
C476        H481   1.082       .  S
C477        C478   1.403       .  A
C478        C479   1.399       .  A
C478        H482   1.082       .  S
C479        C480   1.396       .  A
C479       C2518   1.465       .  S
C480        H483   1.084       .  S
N484        N485   1.323       .  A
N484        C488   1.353       .  A
N484       Cu492   2.125       .  S
N485        C486   1.340       .  A
N485       Cu491   2.045       .  S
C486        C487   1.378       .  A
C486        H489   1.082       .  S
C487        C488   1.398       .  A
C488        H490   1.081       .  S
Cu491       N494   2.044       .  S
Cu492       N502   2.125       .  S
Cu493       N495   2.045       .  S
Cu493       N501   2.046       .  S
N494        N495   1.316       .  A
N494        C498   1.340       .  A
N495        C496   1.340       .  A
C496        C497   1.385       .  A
C496        H499   1.082       .  S
C497        C498   1.385       .  A
C497        C512   1.473       .  S
C498        H500   1.081       .  S
N501        N502   1.323       .  A
N501        C505   1.340       .  A
N502        C503   1.353       .  A
C503        C504   1.398       .  A
C503        H506   1.081       .  S
C504        C505   1.378       .  A
C504        C885   1.490       .  S
C505        H507   1.082       .  S
C508        C509   1.396       .  A
C508        C513   1.398       .  A
C508       C2508   1.464       .  S
C509        C510   1.395       .  A
C509        H514   1.084       .  S
C510        C511   1.398       .  A
C510       C2528   1.463       .  S
C511        C512   1.402       .  A
C511        H515   1.082       .  S
C512        C513   1.402       .  A
C513        H516   1.082       .  S
C517        C518   1.399       .  A
C517        C522   1.396       .  A
C517       C2498   1.464       .  S
C518        C519   1.403       .  A
C518        H523   1.082       .  S
C519        C520   1.402       .  A
C519        C539   1.473       .  S
C520        C521   1.397       .  A
C520        H524   1.082       .  S
C521        C522   1.394       .  A
C521       C2488   1.461       .  S
C522        H525   1.084       .  S
N526        N527   1.323       .  A
N526        C530   1.353       .  A
N526       Cu534   2.126       .  S
N527        C528   1.340       .  A
N527       Cu533   2.048       .  S
C528        C529   1.379       .  A
C528        H531   1.082       .  S
C529        C530   1.398       .  A
C530        H532   1.081       .  S
Cu533       N536   2.047       .  S
Cu534       N544   2.126       .  S
Cu535       N537   2.045       .  S
Cu535       N543   2.047       .  S
N536        N537   1.316       .  A
N536        C540   1.340       .  A
N537        C538   1.340       .  A
C538        C539   1.385       .  A
C538        H541   1.081       .  S
C539        C540   1.385       .  A
C540        H542   1.082       .  S
N543        N544   1.323       .  A
N543        C547   1.340       .  A
N544        C545   1.353       .  A
C545        C546   1.398       .  A
C545        H548   1.081       .  S
C546        C547   1.378       .  A
C547        H549   1.082       .  S
C550        C551   1.396       .  A
C550        C555   1.399       .  A
C550       C2501   1.466       .  S
C551        C552   1.396       .  A
C551        H556   1.084       .  S
C552        C553   1.398       .  A
C552       C2521   1.466       .  S
C553        C554   1.402       .  A
C553        H557   1.082       .  S
C554        C555   1.402       .  A
C554        C572   1.473       .  S
C555        H558   1.082       .  S
N559        N560   1.323       .  A
N559        C563   1.353       .  A
N559       Cu567   2.125       .  S
N560        C561   1.340       .  A
N560       Cu566   2.048       .  S
C561        C562   1.379       .  A
C561        H564   1.082       .  S
C562        C563   1.398       .  A
C563        H565   1.081       .  S
Cu566       N569   2.047       .  S
Cu567       N577   2.125       .  S
Cu568       N570   2.046       .  S
Cu568       N576   2.047       .  S
N569        N570   1.317       .  A
N569        C573   1.340       .  A
N570        C571   1.340       .  A
C571        C572   1.385       .  A
C571        H574   1.082       .  S
C572        C573   1.385       .  A
C573        H575   1.082       .  S
N576        N577   1.323       .  A
N576        C580   1.341       .  A
N577        C578   1.353       .  A
C578        C579   1.398       .  A
C578        H581   1.081       .  S
C579        C580   1.379       .  A
C580        H582   1.082       .  S
C583        C584   1.399       .  A
C583        C588   1.396       .  A
C583       C2481   1.467       .  S
C584        C585   1.403       .  A
C584        H589   1.082       .  S
C585        C586   1.401       .  A
C585        C605   1.474       .  S
C586        C587   1.397       .  A
C586        H590   1.082       .  S
C587        C588   1.395       .  A
C587       C2491   1.462       .  S
C588        H591   1.084       .  S
N592        N593   1.323       .  A
N592        C596   1.353       .  A
N592       Cu600   2.127       .  S
N593        C594   1.341       .  A
N593       Cu599   2.050       .  S
C594        C595   1.380       .  A
C594        H597   1.082       .  S
C595        C596   1.399       .  A
C596        H598   1.081       .  S
Cu599       N602   2.049       .  S
Cu600       N610   2.126       .  S
Cu601       N603   2.041       .  S
Cu601       N609   2.042       .  S
N602        N603   1.316       .  A
N602        C606   1.340       .  A
N603        C604   1.339       .  A
C604        C605   1.385       .  A
C604        H607   1.082       .  S
C605        C606   1.386       .  A
C606        H608   1.082       .  S
N609        N610   1.323       .  A
N609        C613   1.340       .  A
N610        C611   1.353       .  A
C611        C612   1.399       .  A
C611        H614   1.081       .  S
C612        C613   1.377       .  A
C613        H615   1.082       .  S
C616        C617   1.397       .  A
C616        C621   1.400       .  A
C616       C2478   1.469       .  S
C617        C618   1.395       .  A
C617        H622   1.084       .  S
C618        C619   1.398       .  A
C618       C2511   1.465       .  S
C619        C620   1.401       .  A
C619        H623   1.082       .  S
C620        C621   1.402       .  A
C620        C638   1.474       .  S
C621        H624   1.082       .  S
N625        N626   1.323       .  A
N625        C629   1.353       .  A
N625       Cu633   2.126       .  S
N626        C627   1.340       .  A
N626       Cu632   2.047       .  S
C627        C628   1.378       .  A
C627        H630   1.082       .  S
C628        C629   1.398       .  A
C629        H631   1.081       .  S
Cu632       N635   2.046       .  S
Cu633       N643   2.126       .  S
Cu634       N636   2.046       .  S
Cu634       N642   2.047       .  S
N635        N636   1.316       .  A
N635        C639   1.340       .  A
N636        C637   1.340       .  A
C637        C638   1.385       .  A
C637        H640   1.082       .  S
C638        C639   1.385       .  A
C639        H641   1.082       .  S
N642        N643   1.323       .  A
N642        C646   1.340       .  A
N643        C644   1.353       .  A
C644        C645   1.399       .  A
C644        H647   1.081       .  S
C645        C646   1.379       .  A
C646        H648   1.082       .  S
C649        C650   1.406   1_556  A
C649        C654   1.406       .  A
C649       C2468   1.498   1_556  S
C650        C651   1.416       .  A
C650        H655   1.082       .  S
C651        C652   1.404   1_554  A
C652        C653   1.404       .  A
C652        H656   1.082       .  S
C653        C654   1.415       .  A
C653        C846   1.489       .  S
C654        H657   1.082       .  S
C658        C659   1.406   1_556  A
C658        C663   1.406       .  A
C658       C2471   1.498       .  S
C659        C660   1.415       .  A
C659        H664   1.083       .  S
C660        C661   1.404   1_554  A
C661        C662   1.405       .  A
C661        H665   1.082       .  S
C662        C663   1.416       .  A
C662        C862   1.492       .  S
C663        H666   1.082       .  S
C667        C668   1.409   1_655  A
C667        C672   1.408       .  A
C667       C2458   1.506       .  S
C668        C669   1.416       .  A
C668        H673   1.082       .  S
C669        C670   1.405   1_455  A
C669       C1606   1.492       .  S
C670        C671   1.404       .  A
C670        H674   1.082       .  S
C671        C672   1.414       .  A
C671        C780   1.491       .  S
C672        H675   1.082       .  S
C676        C677   1.409       .  A
C676        C681   1.408   1_655  A
C676       C2461   1.507       .  S
C677        C678   1.415       .  A
C677        H682   1.082       .  S
C678        C679   1.405       .  A
C678        C796   1.492       .  S
C679        C680   1.405   1_655  A
C679        H683   1.082       .  S
C680        C681   1.415       .  A
C680       C1656   1.491       .  S
C681        H684   1.082       .  S
N685        N686   1.323       .  A
N685        C689   1.353       .  A
N685       Cu693   2.125       .  S
N686        C687   1.340       .  A
N686       Cu692   2.047       .  S
C687        C688   1.379       .  A
C687        H690   1.082       .  S
C688        C689   1.398       .  A
C688        C912   1.490       .  S
C689        H691   1.081       .  S
Cu692       N695   2.045       .  S
Cu693       N703   2.125       .  S
Cu694       N696   2.047       .  S
Cu694       N702   2.049       .  S
N695        N696   1.316       .  A
N695        C699   1.340       .  A
N696        C697   1.340       .  A
C697        C698   1.385       .  A
C697        H700   1.082       .  S
C698        C699   1.385       .  A
C698        C711   1.473       .  S
C699        H701   1.081       .  S
N702        N703   1.323       .  A
N702        C706   1.340       .  A
N703        C704   1.353       .  A
C704        C705   1.398       .  A
C704        H707   1.081       .  S
C705        C706   1.379       .  A
C706        H708   1.082       .  S
C709        C710   1.398       .  A
C709        C714   1.395       .  A
C709       C2441   1.462       .  S
C710        C711   1.402       .  A
C710        H715   1.082       .  S
C711        C712   1.403       .  A
C712        C713   1.399       .  A
C712        H716   1.082       .  S
C713        C714   1.396       .  A
C713       C2448   1.465       .  S
C714        H717   1.084       .  S
N718        N719   1.323       .  A
N718        C722   1.353       .  A
N718       Cu726   2.126       .  S
N719        C720   1.340       .  A
N719       Cu725   2.045       .  S
C720        C721   1.378       .  A
C720        H723   1.082       .  S
C721        C722   1.398       .  A
C722        H724   1.081       .  S
Cu725       N728   2.044       .  S
Cu726       N736   2.126       .  S
Cu727       N729   2.048       .  S
Cu727       N735   2.049       .  S
N728        N729   1.316       .  A
N728        C732   1.340       .  A
N729        C730   1.340       .  A
C730        C731   1.386       .  A
C730        H733   1.082       .  S
C731        C732   1.385       .  A
C731        C746   1.475       .  S
C732        H734   1.082       .  S
N735        N736   1.323       .  A
N735        C739   1.340       .  A
N736        C737   1.353       .  A
C737        C738   1.398       .  A
C737        H740   1.081       .  S
C738        C739   1.379       .  A
C738        C903   1.491       .  S
C739        H741   1.082       .  S
C742        C743   1.397       .  A
C742        C747   1.399       .  A
C742       C2428   1.468       .  S
C743        C744   1.396       .  A
C743        H748   1.084       .  S
C744        C745   1.398       .  A
C744       C2451   1.465       .  S
C745        C746   1.402       .  A
C745        H749   1.082       .  S
C746        C747   1.403       .  A
C747        H750   1.082       .  S
C751        C752   1.398       .  A
C751        C756   1.396       .  A
C751       C2418   1.465       .  S
C752        C753   1.401       .  A
C752        H757   1.083       .  S
C753        C754   1.402       .  A
C753        C773   1.471       .  S
C754        C755   1.398       .  A
C754        H758   1.082       .  S
C755        C756   1.396       .  A
C755       C2408   1.464       .  S
C756        H759   1.084       .  S
N760        N761   1.323       .  A
N760        C764   1.353       .  A
N760       Cu768   2.124       .  S
N761        C762   1.340       .  A
N761       Cu767   2.046       .  S
C762        C763   1.378       .  A
C762        H765   1.083       .  S
C763        C764   1.398       .  A
C764        H766   1.081       .  S
Cu767       N770   2.044       .  S
Cu768       N778   2.124       .  S
Cu769       N771   2.045       .  S
Cu769       N777   2.046       .  S
N770        N771   1.316       .  A
N770        C774   1.340       .  A
N771        C772   1.340       .  A
C772        C773   1.384       .  A
C772        H775   1.082       .  S
C773        C774   1.384       .  A
C774        H776   1.082       .  S
N777        N778   1.323       .  A
N777        C781   1.340       .  A
N778        C779   1.353       .  A
C779        C780   1.398       .  A
C779        H782   1.081       .  S
C780        C781   1.379       .  A
C781        H783   1.082       .  S
C784        C785   1.396       .  A
C784        C789   1.399       .  A
C784       C2421   1.466       .  S
C785        C786   1.395       .  A
C785        H790   1.085       .  S
C786        C787   1.397       .  A
C786       C2438   1.461       .  S
C787        C788   1.402       .  A
C787        H791   1.082       .  S
C788        C789   1.402       .  A
C788        C806   1.473       .  S
C789        H792   1.082       .  S
N793        N794   1.323       .  A
N793        C797   1.354       .  A
N793       Cu801   2.127       .  S
N794        C795   1.340       .  A
N794       Cu800   2.048       .  S
C795        C796   1.379       .  A
C795        H798   1.082       .  S
C796        C797   1.399       .  A
C797        H799   1.081       .  S
Cu800       N803   2.046       .  S
Cu801       N811   2.127       .  S
Cu802       N804   2.045       .  S
Cu802       N810   2.046       .  S
N803        N804   1.316       .  A
N803        C807   1.340       .  A
N804        C805   1.340       .  A
C805        C806   1.385       .  A
C805        H808   1.081       .  S
C806        C807   1.385       .  A
C807        H809   1.082       .  S
N810        N811   1.323       .  A
N810        C814   1.340       .  A
N811        C812   1.354       .  A
C812        C813   1.399       .  A
C812        H815   1.081       .  S
C813        C814   1.378       .  A
C814        H816   1.083       .  S
C817        C818   1.394       .  A
C817        C822   1.397       .  A
C817       C2398   1.461       .  S
C818        C819   1.396       .  A
C818        H823   1.084       .  S
C819        C820   1.399       .  A
C819       C2411   1.465       .  S
C820        C821   1.402       .  A
C820        H824   1.082       .  S
C821        C822   1.402       .  A
C821        C839   1.473       .  S
C822        H825   1.082       .  S
N826        N827   1.323       .  A
N826        C830   1.353       .  A
N826       Cu834   2.123       .  S
N827        C828   1.340       .  A
N827       Cu833   2.048       .  S
C828        C829   1.379       .  A
C828        H831   1.082       .  S
C829        C830   1.397       .  A
C830        H832   1.081       .  S
Cu833       N836   2.047       .  S
Cu834       N844   2.123       .  S
Cu835       N837   2.045       .  S
Cu835       N843   2.046       .  S
N836        N837   1.317       .  A
N836        C840   1.340       .  A
N837        C838   1.339       .  A
C838        C839   1.385       .  A
C838        H841   1.081       .  S
C839        C840   1.385       .  A
C840        H842   1.081       .  S
N843        N844   1.323       .  A
N843        C847   1.340       .  A
N844        C845   1.353       .  A
C845        C846   1.398       .  A
C845        H848   1.081       .  S
C846        C847   1.379       .  A
C847        H849   1.082       .  S
C850        C851   1.395       .  A
C850        C855   1.397       .  A
C850       C2401   1.462       .  S
C851        C852   1.396       .  A
C851        H856   1.084       .  S
C852        C853   1.400       .  A
C852       C2431   1.467       .  S
C853        C854   1.404       .  A
C853        H857   1.082       .  S
C854        C855   1.402       .  A
C854        C872   1.475       .  S
C855        H858   1.082       .  S
N859        N860   1.323       .  A
N859        C863   1.353       .  A
N859       Cu867   2.125       .  S
N860        C861   1.341       .  A
N860       Cu866   2.051       .  S
C861        C862   1.380       .  A
C861        H864   1.082       .  S
C862        C863   1.398       .  A
C863        H865   1.082       .  S
Cu866       N869   2.049       .  S
Cu867       N877   2.125       .  S
Cu868       N870   2.043       .  S
Cu868       N876   2.044       .  S
N869        N870   1.316       .  A
N869        C873   1.340       .  A
N870        C871   1.340       .  A
C871        C872   1.385       .  A
C871        H874   1.082       .  S
C872        C873   1.386       .  A
C873        H875   1.082       .  S
N876        N877   1.323       .  A
N876        C880   1.340       .  A
N877        C878   1.353       .  A
C878        C879   1.398       .  A
C878        H881   1.081       .  S
C879        C880   1.378       .  A
C880        H882   1.082       .  S
C883        C884   1.408       .  A
C883        C888   1.408   1_554  A
C883       C2388   1.504       .  S
C884        C885   1.414       .  A
C884        H889   1.082       .  S
C885        C886   1.404   1_554  A
C886        C887   1.405       .  A
C886        H890   1.082       .  S
C887        C888   1.415       .  A
C887       C1048   1.490       .  S
C888        H891   1.082       .  S
C892        C893   1.408   1_556  A
C892        C897   1.407       .  A
C892       C2391   1.504   1_556  S
C893        C894   1.415       .  A
C893        H898   1.082       .  S
C894        C895   1.405   1_554  A
C895        C896   1.405       .  A
C895        H899   1.082       .  S
C896        C897   1.415       .  A
C896       C1015   1.490       .  S
C897        H900   1.082       .  S
C901        C902   1.406       .  A
C901        C906   1.406   1_545  A
C901       C2378   1.499       .  S
C902        C903   1.415       .  A
C902        H907   1.082       .  S
C903        C904   1.405       .  A
C904        C905   1.405   1_545  A
C904        H908   1.082       .  S
C905        C906   1.415       .  A
C905        C982   1.491       .  S
C906        H909   1.082       .  S
C910        C911   1.406       .  A
C910        C915   1.406   1_545  A
C910       C2381   1.499       .  S
C911        C912   1.414       .  A
C911        H916   1.082       .  S
C912        C913   1.405       .  A
C913        C914   1.405   1_545  A
C913        H917   1.082       .  S
C914        C915   1.416       .  A
C914        C966   1.491       .  S
C915        H918   1.082       .  S
C919        C920   1.409       .  A
C919        C924   1.410   1_655  A
C919       C2368   1.509       .  S
C920        C921   1.415       .  A
C920        H925   1.081       .  S
C921        C922   1.403       .  A
C921       C1131   1.491       .  S
C922        C923   1.404   1_655  A
C922        H926   1.082       .  S
C923        C924   1.416       .  A
C923       C1390   1.490       .  S
C924        H927   1.082       .  S
C928        C929   1.408   1_655  A
C928        C933   1.409       .  A
C928       C2371   1.508       .  S
C929        C930   1.415       .  A
C929        H934   1.082       .  S
C930        C931   1.404   1_455  A
C930       C1440   1.490       .  S
C931        C932   1.405       .  A
C931        H935   1.082       .  S
C932        C933   1.416       .  A
C932       C1098   1.492       .  S
C933        H936   1.082       .  S
C937        C938   1.398       .  A
C937        C942   1.395       .  A
C937       C2358   1.463       .  S
C938        C939   1.403       .  A
C938        H943   1.082       .  S
C939        C940   1.402       .  A
C939        C959   1.473       .  S
C940        C941   1.397       .  A
C940        H944   1.082       .  S
C941        C942   1.395       .  A
C941       C2348   1.461       .  S
C942        H945   1.084       .  S
N946        N947   1.323       .  A
N946        C950   1.354       .  A
N946       Cu954   2.128       .  S
N947        C948   1.340       .  A
N947       Cu953   2.047       .  S
C948        C949   1.379       .  A
C948        H951   1.082       .  S
C949        C950   1.399       .  A
C950        H952   1.081       .  S
Cu953       N956   2.046       .  S
Cu954       N964   2.128       .  S
Cu955       N957   2.044       .  S
Cu955       N963   2.045       .  S
N956        N957   1.316       .  A
N956        C960   1.340       .  A
N957        C958   1.340       .  A
C958        C959   1.385       .  A
C958        H961   1.082       .  S
C959        C960   1.385       .  A
C960        H962   1.082       .  S
N963        N964   1.323       .  A
N963        C967   1.340       .  A
N964        C965   1.353       .  A
C965        C966   1.399       .  A
C965        H968   1.081       .  S
C966        C967   1.379       .  A
C967        H969   1.082       .  S
C970        C971   1.398       .  A
C970        C975   1.396       .  A
C970       C2361   1.463       .  S
C971        C972   1.403       .  A
C971        H976   1.082       .  S
C972        C973   1.403       .  A
C972        C992   1.473       .  S
C973        C974   1.396       .  A
C973        H977   1.082       .  S
C974        C975   1.394       .  A
C974       C2338   1.458       .  S
C975        H978   1.084       .  S
N979        N980   1.323       .  A
N979        C983   1.353       .  A
N979       Cu987   2.126       .  S
N980        C981   1.340       .  A
N980       Cu986   2.048       .  S
C981        C982   1.379       .  A
C981        H984   1.083       .  S
C982        C983   1.398       .  A
C983        H985   1.081       .  S
Cu986       N989   2.047       .  S
Cu987       N997   2.126       .  S
Cu988       N990   2.045       .  S
Cu988       N996   2.046       .  S
N989        N990   1.316       .  A
N989        C993   1.340       .  A
N990        C991   1.340       .  A
C991        C992   1.385       .  A
C991        H994   1.082       .  S
C992        C993   1.385       .  A
C993        H995   1.082       .  S
N996        N997   1.323       .  A
N996       C1000   1.340       .  A
N997        C998   1.354       .  A
C998        C999   1.398       .  A
C998       H1001   1.081       .  S
C999       C1000   1.379       .  A
C1000      H1002   1.082       .  S
C1003      C1004   1.396       .  A
C1003      C1008   1.399       .  A
C1003      C2328   1.464       .  S
C1004      C1005   1.394       .  A
C1004      H1009   1.084       .  S
C1005      C1006   1.396       .  A
C1005      C2341   1.458       .  S
C1006      C1007   1.402       .  A
C1006      H1010   1.082       .  S
C1007      C1008   1.402       .  A
C1007      C1025   1.472       .  S
C1008      H1011   1.082       .  S
N1012      N1013   1.323       .  A
N1012      C1016   1.353       .  A
N1012     Cu1020   2.126       .  S
N1013      C1014   1.340       .  A
N1013     Cu1019   2.048       .  S
C1014      C1015   1.378       .  A
C1014      H1017   1.083       .  S
C1015      C1016   1.398       .  A
C1016      H1018   1.081       .  S
Cu1019     N1022   2.047       .  S
Cu1020     N1030   2.126       .  S
Cu1021     N1023   2.044       .  S
Cu1021     N1029   2.045       .  S
N1022      N1023   1.316       .  A
N1022      C1026   1.340       .  A
N1023      C1024   1.340       .  A
C1024      C1025   1.384       .  A
C1024      H1027   1.081       .  S
C1025      C1026   1.385       .  A
C1026      H1028   1.082       .  S
N1029      N1030   1.323       .  A
N1029      C1033   1.340       .  A
N1030      C1031   1.354       .  A
C1031      C1032   1.398       .  A
C1031      H1034   1.081       .  S
C1032      C1033   1.378       .  A
C1033      H1035   1.082       .  S
C1036      C1037   1.398       .  A
C1036      C1041   1.395       .  A
C1036      C2331   1.465       .  S
C1037      C1038   1.402       .  A
C1037      H1042   1.082       .  S
C1038      C1039   1.402       .  A
C1038      C1058   1.473       .  S
C1039      C1040   1.399       .  A
C1039      H1043   1.082       .  S
C1040      C1041   1.396       .  A
C1040      C2318   1.467       .  S
C1041      H1044   1.084       .  S
N1045      N1046   1.323       .  A
N1045      C1049   1.353       .  A
N1045     Cu1053   2.124       .  S
N1046      C1047   1.340       .  A
N1046     Cu1052   2.048       .  S
C1047      C1048   1.379       .  A
C1047      H1050   1.082       .  S
C1048      C1049   1.398       .  A
C1049      H1051   1.081       .  S
Cu1052     N1055   2.046       .  S
Cu1053     N1063   2.124       .  S
Cu1054     N1056   2.045       .  S
Cu1054     N1062   2.046       .  S
N1055      N1056   1.316       .  A
N1055      C1059   1.340       .  A
N1056      C1057   1.340       .  A
C1057      C1058   1.385       .  A
C1057      H1060   1.082       .  S
C1058      C1059   1.385       .  A
C1059      H1061   1.082       .  S
N1062      N1063   1.323       .  A
N1062      C1066   1.340       .  A
N1063      C1064   1.353       .  A
C1064      C1065   1.398       .  A
C1064      H1067   1.081       .  S
C1065      C1066   1.379       .  A
C1066      H1068   1.082       .  S
C1069      C1070   1.398       .  A
C1069      C1074   1.401       .  A
C1069      C2311   1.470       .  S
C1070      C1071   1.396       .  A
C1070      H1075   1.084       .  S
C1071      C1072   1.396       .  A
C1071      C2351   1.461       .  S
C1072      C1073   1.401       .  A
C1072      H1076   1.082       .  S
C1073      C1074   1.402       .  A
C1073      C1091   1.472       .  S
C1074      H1077   1.082       .  S
N1078      N1079   1.323       .  A
N1078      C1082   1.354       .  A
N1078     Cu1086   2.127       .  S
N1079      C1080   1.340       .  A
N1079     Cu1085   2.046       .  S
C1080      C1081   1.378       .  A
C1080      H1083   1.083       .  S
C1081      C1082   1.398       .  A
C1082      H1084   1.081       .  S
Cu1085     N1088   2.045       .  S
Cu1086     N1096   2.127       .  S
Cu1087     N1089   2.047       .  S
Cu1087     N1095   2.048       .  S
N1088      N1089   1.317       .  A
N1088      C1092   1.340       .  A
N1089      C1090   1.341       .  A
C1090      C1091   1.385       .  A
C1090      H1093   1.082       .  S
C1091      C1092   1.384       .  A
C1092      H1094   1.081       .  S
N1095      N1096   1.323       .  A
N1095      C1099   1.340       .  A
N1096      C1097   1.354       .  A
C1097      C1098   1.399       .  A
C1097      H1100   1.081       .  S
C1098      C1099   1.379       .  A
C1099      H1101   1.082       .  S
C1102      C1103   1.397       .  A
C1102      C1107   1.399       .  A
C1102      C2308   1.467       .  S
C1103      C1104   1.395       .  A
C1103      H1108   1.084       .  S
C1104      C1105   1.397       .  A
C1104      C2321   1.464       .  S
C1105      C1106   1.402       .  A
C1105      H1109   1.082       .  S
C1106      C1107   1.402       .  A
C1106      C1124   1.472       .  S
C1107      H1110   1.082       .  S
N1111      N1112   1.323       .  A
N1111      C1115   1.354       .  A
N1111     Cu1119   2.126       .  S
N1112      C1113   1.340       .  A
N1112     Cu1118   2.047       .  S
C1113      C1114   1.378       .  A
C1113      H1116   1.083       .  S
C1114      C1115   1.398       .  A
C1115      H1117   1.082       .  S
Cu1118     N1121   2.046       .  S
Cu1119     N1129   2.126       .  S
Cu1120     N1122   2.041       .  S
Cu1120     N1128   2.042       .  S
N1121      N1122   1.316       .  A
N1121      C1125   1.340       .  A
N1122      C1123   1.339       .  A
C1123      C1124   1.384       .  A
C1123      H1126   1.082       .  S
C1124      C1125   1.385       .  A
C1125      H1127   1.082       .  S
N1128      N1129   1.322       .  A
N1128      C1132   1.339       .  A
N1129      C1130   1.353       .  A
C1130      C1131   1.399       .  A
C1130      H1133   1.082       .  S
C1131      C1132   1.379       .  A
C1132      H1134   1.082       .  S
C1135      C1136   1.406       .  A
C1135      C1140   1.406   1_545  A
C1135      C2301   1.498       .  S
C1136      C1137   1.416       .  A
C1136      H1141   1.082       .  S
C1137      C1138   1.406       .  A
C1137      C1837   1.491       .  S
C1138      C1139   1.405   1_545  A
C1138      H1142   1.082       .  S
C1139      C1140   1.414       .  A
C1139      C1347   1.489       .  S
C1140      H1143   1.083       .  S
C1144      C1145   1.405   1_545  A
C1144      C1149   1.406       .  A
C1144      C2298   1.497       .  S
C1145      C1146   1.414       .  A
C1145      H1150   1.082       .  S
C1146      C1147   1.405   1_565  A
C1146      C1314   1.490       .  S
C1147      C1148   1.405       .  A
C1147      H1151   1.082       .  S
C1148      C1149   1.416       .  A
C1148      C1936   1.491       .  S
C1149      H1152   1.082       .  S
N1153      N1154   1.323       .  A
N1153      C1157   1.353       .  A
N1153     Cu1161   2.123       .  S
N1154      C1155   1.340       .  A
N1154     Cu1160   2.044       .  S
C1155      C1156   1.378       .  A
C1155      H1158   1.082       .  S
C1156      C1157   1.398       .  A
C1157      H1159   1.081       .  S
Cu1160     N1163   2.043       .  S
Cu1161     N1171   2.123       .  S
Cu1162     N1164   2.047       .  S
Cu1162     N1170   2.049       .  S
N1163      N1164   1.316       .  A
N1163      C1167   1.340       .  A
N1164      C1165   1.340       .  A
C1165      C1166   1.386       .  A
C1165      H1168   1.082       .  S
C1166      C1167   1.385       .  A
C1166      C1179   1.473       .  S
C1167      H1169   1.082       .  S
N1170      N1171   1.323       .  A
N1170      C1174   1.340       .  A
N1171      C1172   1.353       .  A
C1172      C1173   1.398       .  A
C1172      H1175   1.082       .  S
C1173      C1174   1.379       .  A
C1174      H1176   1.082       .  S
C1177      C1178   1.399       .  A
C1177      C1182   1.396       .  A
C1177      C2291   1.466       .  S
C1178      C1179   1.402       .  A
C1178      H1183   1.082       .  S
C1179      C1180   1.401       .  A
C1180      C1181   1.398       .  A
C1180      H1184   1.082       .  S
C1181      C1182   1.396       .  A
C1181      C2281   1.464       .  S
C1182      H1185   1.084       .  S
N1186      N1187   1.323       .  A
N1186      C1190   1.353       .  A
N1186     Cu1194   2.125       .  S
N1187      C1188   1.340       .  A
N1187     Cu1193   2.046       .  S
C1188      C1189   1.378       .  A
C1188      H1191   1.082       .  S
C1189      C1190   1.398       .  A
C1190      H1192   1.081       .  S
Cu1193     N1196   2.044       .  S
Cu1194     N1204   2.125       .  S
Cu1195     N1197   2.047       .  S
Cu1195     N1203   2.048       .  S
N1196      N1197   1.316       .  A
N1196      C1200   1.340       .  A
N1197      C1198   1.340       .  A
C1198      C1199   1.385       .  A
C1198      H1201   1.082       .  S
C1199      C1200   1.385       .  A
C1199      C1214   1.473       .  S
C1200      H1202   1.082       .  S
N1203      N1204   1.323       .  A
N1203      C1207   1.340       .  A
N1204      C1205   1.353       .  A
C1205      C1206   1.398       .  A
C1205      H1208   1.081       .  S
C1206      C1207   1.378       .  A
C1207      H1209   1.082       .  S
C1210      C1211   1.397       .  A
C1210      C1215   1.399       .  A
C1210      C2271   1.467       .  S
C1211      C1212   1.397       .  A
C1211      H1216   1.084       .  S
C1212      C1213   1.399       .  A
C1212      C2288   1.467       .  S
C1213      C1214   1.401       .  A
C1213      H1217   1.082       .  S
C1214      C1215   1.401       .  A
C1215      H1218   1.082       .  S
N1219      N1220   1.322       .  A
N1219      C1223   1.353       .  A
N1219     Cu1227   2.124       .  S
N1220      C1221   1.340       .  A
N1220     Cu1226   2.045       .  S
C1221      C1222   1.379       .  A
C1221      H1224   1.082       .  S
C1222      C1223   1.399       .  A
C1223      H1225   1.081       .  S
Cu1226     N1229   2.044       .  S
Cu1227     N1237   2.124       .  S
Cu1228     N1230   2.046       .  S
Cu1228     N1236   2.047       .  S
N1229      N1230   1.316       .  A
N1229      C1233   1.340       .  A
N1230      C1231   1.340       .  A
C1231      C1232   1.385       .  A
C1231      H1234   1.081       .  S
C1232      C1233   1.385       .  A
C1232      C1245   1.473       .  S
C1233      H1235   1.080       .  S
N1236      N1237   1.323       .  A
N1236      C1240   1.340       .  A
N1237      C1238   1.353       .  A
C1238      C1239   1.398       .  A
C1238      H1241   1.082       .  S
C1239      C1240   1.378       .  A
C1239      C1353   1.488       .  S
C1240      H1242   1.083       .  S
C1243      C1244   1.400       .  A
C1243      C1248   1.397       .  A
C1243      C2248   1.469       .  S
C1244      C1245   1.403       .  A
C1244      H1249   1.082       .  S
C1245      C1246   1.402       .  A
C1246      C1247   1.397       .  A
C1246      H1250   1.081       .  S
C1247      C1248   1.394       .  A
C1247      C2258   1.463       .  S
C1248      H1251   1.085       .  S
N1252      N1253   1.323       .  A
N1252      C1256   1.353       .  A
N1252     Cu1260   2.125       .  S
N1253      C1254   1.340       .  A
N1253     Cu1259   2.048       .  S
C1254      C1255   1.379       .  A
C1254      H1257   1.082       .  S
C1255      C1256   1.398       .  A
C1255      C1362   1.490       .  S
C1256      H1258   1.081       .  S
Cu1259     N1262   2.047       .  S
Cu1260     N1270   2.125       .  S
Cu1261     N1263   2.043       .  S
Cu1261     N1269   2.044       .  S
N1262      N1263   1.316       .  A
N1262      C1266   1.340       .  A
N1263      C1264   1.340       .  A
C1264      C1265   1.385       .  A
C1264      H1267   1.082       .  S
C1265      C1266   1.386       .  A
C1265      C1280   1.473       .  S
C1266      H1268   1.082       .  S
N1269      N1270   1.323       .  A
N1269      C1273   1.339       .  A
N1270      C1271   1.353       .  A
C1271      C1272   1.398       .  A
C1271      H1274   1.081       .  S
C1272      C1273   1.378       .  A
C1273      H1275   1.082       .  S
C1276      C1277   1.396       .  A
C1276      C1281   1.399       .  A
C1276      C2268   1.467       .  S
C1277      C1278   1.396       .  A
C1277      H1282   1.084       .  S
C1278      C1279   1.398       .  A
C1278      C2261   1.465       .  S
C1279      C1280   1.401       .  A
C1279      H1283   1.082       .  S
C1280      C1281   1.402       .  A
C1281      H1284   1.082       .  S
C1285      C1286   1.395       .  A
C1285      C1290   1.397       .  A
C1285      C2241   1.461       .  S
C1286      C1287   1.395       .  A
C1286      H1291   1.084       .  S
C1287      C1288   1.398       .  A
C1287      C2278   1.464       .  S
C1288      C1289   1.403       .  A
C1288      H1292   1.082       .  S
C1289      C1290   1.402       .  A
C1289      C1307   1.473       .  S
C1290      H1293   1.082       .  S
N1294      N1295   1.322       .  A
N1294      C1298   1.353       .  A
N1294     Cu1302   2.124       .  S
N1295      C1296   1.339       .  A
N1295     Cu1301   2.045       .  S
C1296      C1297   1.379       .  A
C1296      H1299   1.082       .  S
C1297      C1298   1.399       .  A
C1298      H1300   1.081       .  S
Cu1301     N1304   2.044       .  S
Cu1302     N1312   2.124       .  S
Cu1303     N1305   2.046       .  S
Cu1303     N1311   2.047       .  S
N1304      N1305   1.316       .  A
N1304      C1308   1.340       .  A
N1305      C1306   1.340       .  A
C1306      C1307   1.385       .  A
C1306      H1309   1.081       .  S
C1307      C1308   1.385       .  A
C1308      H1310   1.081       .  S
N1311      N1312   1.323       .  A
N1311      C1315   1.340       .  A
N1312      C1313   1.353       .  A
C1313      C1314   1.398       .  A
C1313      H1316   1.081       .  S
C1314      C1315   1.379       .  A
C1315      H1317   1.082       .  S
C1318      C1319   1.396       .  A
C1318      C1323   1.396       .  A
C1318      C2238   1.461       .  S
C1319      C1320   1.398       .  A
C1319      H1324   1.084       .  S
C1320      C1321   1.401       .  A
C1320      C2251   1.471       .  S
C1321      C1322   1.402       .  A
C1321      H1325   1.082       .  S
C1322      C1323   1.401       .  A
C1322      C1340   1.472       .  S
C1323      H1326   1.082       .  S
N1327      N1328   1.323       .  A
N1327      C1331   1.353       .  A
N1327     Cu1335   2.126       .  S
N1328      C1329   1.340       .  A
N1328     Cu1334   2.047       .  S
C1329      C1330   1.379       .  A
C1329      H1332   1.082       .  S
C1330      C1331   1.399       .  A
C1331      H1333   1.081       .  S
Cu1334     N1337   2.046       .  S
Cu1335     N1345   2.126       .  S
Cu1336     N1338   2.046       .  S
Cu1336     N1344   2.047       .  S
N1337      N1338   1.317       .  A
N1337      C1341   1.340       .  A
N1338      C1339   1.340       .  A
C1339      C1340   1.385       .  A
C1339      H1342   1.081       .  S
C1340      C1341   1.385       .  A
C1341      H1343   1.082       .  S
N1344      N1345   1.323       .  A
N1344      C1348   1.340       .  A
N1345      C1346   1.354       .  A
C1346      C1347   1.398       .  A
C1346      H1349   1.081       .  S
C1347      C1348   1.378       .  A
C1348      H1350   1.083       .  S
C1351      C1352   1.406   1_556  A
C1351      C1356   1.406       .  A
C1351      C2228   1.498       .  S
C1352      C1353   1.413       .  A
C1352      H1357   1.083       .  S
C1353      C1354   1.404   1_554  A
C1354      C1355   1.405       .  A
C1354      H1358   1.082       .  S
C1355      C1356   1.416       .  A
C1355      C1482   1.490       .  S
C1356      H1359   1.082       .  S
C1360      C1361   1.406       .  A
C1360      C1365   1.406   1_554  A
C1360      C2231   1.498       .  S
C1361      C1362   1.415       .  A
C1361      H1366   1.082       .  S
C1362      C1363   1.405       .  A
C1363      C1364   1.405   1_554  A
C1363      H1367   1.082       .  S
C1364      C1365   1.415       .  A
C1364      C1498   1.490       .  S
C1365      H1368   1.082       .  S
C1369      C1370   1.407   1_545  A
C1369      C1374   1.407       .  A
C1369      C2218   1.503       .  S
C1370      C1371   1.415       .  A
C1370      H1375   1.082       .  S
C1371      C1372   1.405   1_565  A
C1371      C1548   1.490       .  S
C1372      C1373   1.405       .  A
C1372      H1376   1.082       .  S
C1373      C1374   1.415       .  A
C1373      C1672   1.491       .  S
C1374      H1377   1.082       .  S
C1378      C1379   1.407       .  A
C1378      C1383   1.407   1_545  A
C1378      C2221   1.503       .  S
C1379      C1380   1.414       .  A
C1379      H1384   1.082       .  S
C1380      C1381   1.404       .  A
C1380      C1705   1.491       .  S
C1381      C1382   1.405   1_545  A
C1381      H1385   1.082       .  S
C1382      C1383   1.415       .  A
C1382      C1581   1.489       .  S
C1383      H1386   1.082       .  S
N1387      N1388   1.323       .  A
N1387      C1391   1.353       .  A
N1387     Cu1395   2.125       .  S
N1388      C1389   1.341       .  A
N1388     Cu1394   2.048       .  S
C1389      C1390   1.379       .  A
C1389      H1392   1.082       .  S
C1390      C1391   1.398       .  A
C1391      H1393   1.081       .  S
Cu1394     N1397   2.047       .  S
Cu1395     N1405   2.124       .  S
Cu1396     N1398   2.045       .  S
Cu1396     N1404   2.046       .  S
N1397      N1398   1.317       .  A
N1397      C1401   1.340       .  A
N1398      C1399   1.340       .  A
C1399      C1400   1.385       .  A
C1399      H1402   1.081       .  S
C1400      C1401   1.386       .  A
C1400      C1413   1.474       .  S
C1401      H1403   1.081       .  S
N1404      N1405   1.323       .  A
N1404      C1408   1.340       .  A
N1405      C1406   1.353       .  A
C1406      C1407   1.398       .  A
C1406      H1409   1.081       .  S
C1407      C1408   1.379       .  A
C1408      H1410   1.082       .  S
C1411      C1412   1.399       .  A
C1411      C1416   1.397       .  A
C1411      C2198   1.466       .  S
C1412      C1413   1.403       .  A
C1412      H1417   1.082       .  S
C1413      C1414   1.402       .  A
C1414      C1415   1.397       .  A
C1414      H1418   1.082       .  S
C1415      C1416   1.396       .  A
C1415      C2211   1.463       .  S
C1416      H1419   1.084       .  S
N1420      N1421   1.323       .  A
N1420      C1424   1.353       .  A
N1420     Cu1428   2.126       .  S
N1421      C1422   1.340       .  A
N1421     Cu1427   2.047       .  S
C1422      C1423   1.379       .  A
C1422      H1425   1.082       .  S
C1423      C1424   1.398       .  A
C1424      H1426   1.081       .  S
Cu1427     N1430   2.046       .  S
Cu1428     N1438   2.126       .  S
Cu1429     N1431   2.045       .  S
Cu1429     N1437   2.045       .  S
N1430      N1431   1.316       .  A
N1430      C1434   1.340       .  A
N1431      C1432   1.340       .  A
C1432      C1433   1.385       .  A
C1432      H1435   1.082       .  S
C1433      C1434   1.385       .  A
C1433      C1446   1.474       .  S
C1434      H1436   1.081       .  S
N1437      N1438   1.323       .  A
N1437      C1441   1.340       .  A
N1438      C1439   1.354       .  A
C1439      C1440   1.399       .  A
C1439      H1442   1.081       .  S
C1440      C1441   1.379       .  A
C1441      H1443   1.082       .  S
C1444      C1445   1.397       .  A
C1444      C1449   1.395       .  A
C1444      C2208   1.461       .  S
C1445      C1446   1.403       .  A
C1445      H1450   1.082       .  S
C1446      C1447   1.403       .  A
C1447      C1448   1.398       .  A
C1447      H1451   1.082       .  S
C1448      C1449   1.395       .  A
C1448      C2188   1.464       .  S
C1449      H1452   1.084       .  S
C1453      C1454   1.396       .  A
C1453      C1458   1.393       .  A
C1453      C2168   1.457       .  S
C1454      C1455   1.402       .  A
C1454      H1459   1.082       .  S
C1455      C1456   1.403       .  A
C1455      C1475   1.473       .  S
C1456      C1457   1.399       .  A
C1456      H1460   1.082       .  S
C1457      C1458   1.396       .  A
C1457      C2178   1.465       .  S
C1458      H1461   1.084       .  S
N1462      N1463   1.323       .  A
N1462      C1466   1.353       .  A
N1462     Cu1470   2.126       .  S
N1463      C1464   1.341       .  A
N1463     Cu1469   2.049       .  S
C1464      C1465   1.379       .  A
C1464      H1467   1.082       .  S
C1465      C1466   1.398       .  A
C1466      H1468   1.081       .  S
Cu1469     N1472   2.048       .  S
Cu1470     N1480   2.126       .  S
Cu1471     N1473   2.044       .  S
Cu1471     N1479   2.045       .  S
N1472      N1473   1.316       .  A
N1472      C1476   1.340       .  A
N1473      C1474   1.340       .  A
C1474      C1475   1.385       .  A
C1474      H1477   1.081       .  S
C1475      C1476   1.386       .  A
C1476      H1478   1.082       .  S
N1479      N1480   1.323       .  A
N1479      C1483   1.340       .  A
N1480      C1481   1.353       .  A
C1481      C1482   1.398       .  A
C1481      H1484   1.081       .  S
C1482      C1483   1.378       .  A
C1483      H1485   1.082       .  S
C1486      C1487   1.398       .  A
C1486      C1491   1.396       .  A
C1486      C2201   1.465       .  S
C1487      C1488   1.402       .  A
C1487      H1492   1.082       .  S
C1488      C1489   1.402       .  A
C1488      C1508   1.473       .  S
C1489      C1490   1.399       .  A
C1489      H1493   1.082       .  S
C1490      C1491   1.396       .  A
C1490      C2181   1.466       .  S
C1491      H1494   1.084       .  S
N1495      N1496   1.323       .  A
N1495      C1499   1.353       .  A
N1495     Cu1503   2.124       .  S
N1496      C1497   1.340       .  A
N1496     Cu1502   2.046       .  S
C1497      C1498   1.378       .  A
C1497      H1500   1.082       .  S
C1498      C1499   1.398       .  A
C1499      H1501   1.081       .  S
Cu1502     N1505   2.044       .  S
Cu1503     N1513   2.124       .  S
Cu1504     N1506   2.046       .  S
Cu1504     N1512   2.047       .  S
N1505      N1506   1.316       .  A
N1505      C1509   1.340       .  A
N1506      C1507   1.340       .  A
C1507      C1508   1.385       .  A
C1507      H1510   1.082       .  S
C1508      C1509   1.385       .  A
C1509      H1511   1.082       .  S
N1512      N1513   1.323       .  A
N1512      C1516   1.340       .  A
N1513      C1514   1.353       .  A
C1514      C1515   1.398       .  A
C1514      H1517   1.081       .  S
C1515      C1516   1.379       .  A
C1516      H1518   1.082       .  S
C1519      C1520   1.396       .  A
C1519      C1524   1.393       .  A
C1519      C2171   1.457       .  S
C1520      C1521   1.402       .  A
C1520      H1525   1.082       .  S
C1521      C1522   1.403       .  A
C1521      C1541   1.473       .  S
C1522      C1523   1.399       .  A
C1522      H1526   1.082       .  S
C1523      C1524   1.395       .  A
C1523      C2158   1.464       .  S
C1524      H1527   1.085       .  S
N1528      N1529   1.323       .  A
N1528      C1532   1.354       .  A
N1528     Cu1536   2.127       .  S
N1529      C1530   1.340       .  A
N1529     Cu1535   2.046       .  S
C1530      C1531   1.379       .  A
C1530      H1533   1.082       .  S
C1531      C1532   1.399       .  A
C1532      H1534   1.081       .  S
Cu1535     N1538   2.045       .  S
Cu1536     N1546   2.127       .  S
Cu1537     N1539   2.045       .  S
Cu1537     N1545   2.047       .  S
N1538      N1539   1.316       .  A
N1538      C1542   1.340       .  A
N1539      C1540   1.340       .  A
C1540      C1541   1.385       .  A
C1540      H1543   1.081       .  S
C1541      C1542   1.385       .  A
C1542      H1544   1.082       .  S
N1545      N1546   1.323       .  A
N1545      C1549   1.340       .  A
N1546      C1547   1.354       .  A
C1547      C1548   1.398       .  A
C1547      H1550   1.081       .  S
C1548      C1549   1.378       .  A
C1549      H1551   1.083       .  S
C1552      C1553   1.396       .  A
C1552      C1557   1.398       .  A
C1552      C2161   1.465       .  S
C1553      C1554   1.396       .  A
C1553      H1558   1.084       .  S
C1554      C1555   1.398       .  A
C1554      C2191   1.465       .  S
C1555      C1556   1.402       .  A
C1555      H1559   1.082       .  S
C1556      C1557   1.402       .  A
C1556      C1574   1.472       .  S
C1557      H1560   1.082       .  S
N1561      N1562   1.323       .  A
N1561      C1565   1.353       .  A
N1561     Cu1569   2.123       .  S
N1562      C1563   1.340       .  A
N1562     Cu1568   2.045       .  S
C1563      C1564   1.378       .  A
C1563      H1566   1.082       .  S
C1564      C1565   1.398       .  A
C1565      H1567   1.081       .  S
Cu1568     N1571   2.044       .  S
Cu1569     N1579   2.124       .  S
Cu1570     N1572   2.047       .  S
Cu1570     N1578   2.048       .  S
N1571      N1572   1.316       .  A
N1571      C1575   1.339       .  A
N1572      C1573   1.340       .  A
C1573      C1574   1.385       .  A
C1573      H1576   1.082       .  S
C1574      C1575   1.384       .  A
C1575      H1577   1.082       .  S
N1578      N1579   1.323       .  A
N1578      C1582   1.340       .  A
N1579      C1580   1.353       .  A
C1580      C1581   1.398       .  A
C1580      H1583   1.081       .  S
C1581      C1582   1.379       .  A
C1582      H1584   1.082       .  S
C1585      C1586   1.406       .  A
C1585      C1590   1.407   1_554  A
C1585      C2148   1.499       .  S
C1586      C1587   1.414       .  A
C1586      H1591   1.082       .  S
C1587      C1588   1.405       .  A
C1587      C1870   1.490       .  S
C1588      C1589   1.405   1_554  A
C1588      H1592   1.082       .  S
C1589      C1590   1.416       .  A
C1589      C1764   1.491       .  S
C1590      H1593   1.082       .  S
C1594      C1595   1.407       .  A
C1594      C1599   1.405   1_554  A
C1594      C2151   1.499       .  S
C1595      C1596   1.415       .  A
C1595      H1600   1.082       .  S
C1596      C1597   1.405   1_554  A
C1596      C1804   1.491       .  S
C1597      C1598   1.406       .  A
C1597      H1601   1.082       .  S
C1598      C1599   1.415       .  A
C1598      C1780   1.490       .  S
C1599      H1602   1.082       .  S
N1603      N1604   1.323       .  A
N1603      C1607   1.353       .  A
N1603     Cu1611   2.126       .  S
N1604      C1605   1.340       .  A
N1604     Cu1610   2.047       .  S
C1605      C1606   1.379       .  A
C1605      H1608   1.082       .  S
C1606      C1607   1.399       .  A
C1607      H1609   1.081       .  S
Cu1610     N1613   2.046       .  S
Cu1611     N1621   2.126       .  S
Cu1612     N1614   2.044       .  S
Cu1612     N1620   2.045       .  S
N1613      N1614   1.316       .  A
N1613      C1617   1.340       .  A
N1614      C1615   1.339       .  A
C1615      C1616   1.385       .  A
C1615      H1618   1.081       .  S
C1616      C1617   1.385       .  A
C1616      C1629   1.473       .  S
C1617      H1619   1.082       .  S
N1620      N1621   1.323       .  A
N1620      C1624   1.340       .  A
N1621      C1622   1.353       .  A
C1622      C1623   1.398       .  A
C1622      H1625   1.081       .  S
C1623      C1624   1.378       .  A
C1624      H1626   1.083       .  S
C1627      C1628   1.397       .  A
C1627      C1632   1.394       .  A
C1627      C2128   1.463       .  S
C1628      C1629   1.403       .  A
C1628      H1633   1.082       .  S
C1629      C1630   1.403       .  A
C1630      C1631   1.399       .  A
C1630      H1634   1.082       .  S
C1631      C1632   1.396       .  A
C1631      C2138   1.467       .  S
C1632      H1635   1.084       .  S
N1636      N1637   1.323       .  A
N1636      C1640   1.353       .  A
N1636     Cu1644   2.125       .  S
N1637      C1638   1.340       .  A
N1637     Cu1643   2.044       .  S
C1638      C1639   1.378       .  A
C1638      H1641   1.082       .  S
C1639      C1640   1.398       .  A
C1639      C2010   1.489       .  S
C1640      H1642   1.081       .  S
Cu1643     N1646   2.043       .  S
Cu1644     N1654   2.125       .  S
Cu1645     N1647   2.049       .  S
Cu1645     N1653   2.051       .  S
N1646      N1647   1.317       .  A
N1646      C1650   1.340       .  A
N1647      C1648   1.340       .  A
C1648      C1649   1.386       .  A
C1648      H1651   1.082       .  S
C1649      C1650   1.384       .  A
C1649      C1664   1.473       .  S
C1650      H1652   1.082       .  S
N1653      N1654   1.323       .  A
N1653      C1657   1.340       .  A
N1654      C1655   1.353       .  A
C1655      C1656   1.398       .  A
C1655      H1658   1.081       .  S
C1656      C1657   1.380       .  A
C1657      H1659   1.082       .  S
C1660      C1661   1.396       .  A
C1660      C1665   1.396       .  A
C1660      C2118   1.462       .  S
C1661      C1662   1.398       .  A
C1661      H1666   1.084       .  S
C1662      C1663   1.400       .  A
C1662      C2141   1.470       .  S
C1663      C1664   1.402       .  A
C1663      H1667   1.082       .  S
C1664      C1665   1.402       .  A
C1665      H1668   1.082       .  S
N1669      N1670   1.323       .  A
N1669      C1673   1.353       .  A
N1669     Cu1677   2.123       .  S
N1670      C1671   1.340       .  A
N1670     Cu1676   2.050       .  S
C1671      C1672   1.379       .  A
C1671      H1674   1.082       .  S
C1672      C1673   1.398       .  A
C1673      H1675   1.081       .  S
Cu1676     N1679   2.049       .  S
Cu1677     N1687   2.123       .  S
Cu1678     N1680   2.045       .  S
Cu1678     N1686   2.046       .  S
N1679      N1680   1.316       .  A
N1679      C1683   1.340       .  A
N1680      C1681   1.340       .  A
C1681      C1682   1.385       .  A
C1681      H1684   1.082       .  S
C1682      C1683   1.385       .  A
C1682      C1695   1.473       .  S
C1683      H1685   1.082       .  S
N1686      N1687   1.323       .  A
N1686      C1690   1.340       .  A
N1687      C1688   1.353       .  A
C1688      C1689   1.398       .  A
C1688      H1691   1.081       .  S
C1689      C1690   1.378       .  A
C1690      H1692   1.082       .  S
C1693      C1694   1.397       .  A
C1693      C1698   1.395       .  A
C1693      C2108   1.463       .  S
C1694      C1695   1.401       .  A
C1694      H1699   1.082       .  S
C1695      C1696   1.403       .  A
C1696      C1697   1.400       .  A
C1696      H1700   1.082       .  S
C1697      C1698   1.397       .  A
C1697      C2098   1.468       .  S
C1698      H1701   1.084       .  S
N1702      N1703   1.323       .  A
N1702      C1706   1.354       .  A
N1702     Cu1710   2.126       .  S
N1703      C1704   1.339       .  A
N1703     Cu1709   2.045       .  S
C1704      C1705   1.379       .  A
C1704      H1707   1.082       .  S
C1705      C1706   1.399       .  A
C1706      H1708   1.081       .  S
Cu1709     N1712   2.044       .  S
Cu1710     N1720   2.127       .  S
Cu1711     N1713   2.045       .  S
Cu1711     N1719   2.047       .  S
N1712      N1713   1.316       .  A
N1712      C1716   1.340       .  A
N1713      C1714   1.340       .  A
C1714      C1715   1.385       .  A
C1714      H1717   1.081       .  S
C1715      C1716   1.385       .  A
C1715      C1730   1.472       .  S
C1716      H1718   1.081       .  S
N1719      N1720   1.323       .  A
N1719      C1723   1.340       .  A
N1720      C1721   1.353       .  A
C1721      C1722   1.398       .  A
C1721      H1724   1.081       .  S
C1722      C1723   1.378       .  A
C1722      C2001   1.490       .  S
C1723      H1725   1.082       .  S
C1726      C1727   1.395       .  A
C1726      C1731   1.398       .  A
C1726      C2111   1.462       .  S
C1727      C1728   1.395       .  A
C1727      H1732   1.084       .  S
C1728      C1729   1.397       .  A
C1728      C2121   1.461       .  S
C1729      C1730   1.402       .  A
C1729      H1733   1.082       .  S
C1730      C1731   1.403       .  A
C1731      H1734   1.082       .  S
C1735      C1736   1.398       .  A
C1735      C1740   1.396       .  A
C1735      C2131   1.465       .  S
C1736      C1737   1.402       .  A
C1736      H1741   1.082       .  S
C1737      C1738   1.402       .  A
C1737      C1757   1.473       .  S
C1738      C1739   1.398       .  A
C1738      H1742   1.082       .  S
C1739      C1740   1.395       .  A
C1739      C2088   1.464       .  S
C1740      H1743   1.084       .  S
N1744      N1745   1.323       .  A
N1744      C1748   1.354       .  A
N1744     Cu1752   2.128       .  S
N1745      C1746   1.340       .  A
N1745     Cu1751   2.047       .  S
C1746      C1747   1.378       .  A
C1746      H1749   1.082       .  S
C1747      C1748   1.399       .  A
C1748      H1750   1.081       .  S
Cu1751     N1754   2.046       .  S
Cu1752     N1762   2.128       .  S
Cu1753     N1755   2.045       .  S
Cu1753     N1761   2.046       .  S
N1754      N1755   1.316       .  A
N1754      C1758   1.340       .  A
N1755      C1756   1.340       .  A
C1756      C1757   1.385       .  A
C1756      H1759   1.081       .  S
C1757      C1758   1.385       .  A
C1758      H1760   1.081       .  S
N1761      N1762   1.323       .  A
N1761      C1765   1.340       .  A
N1762      C1763   1.354       .  A
C1763      C1764   1.399       .  A
C1763      H1766   1.081       .  S
C1764      C1765   1.379       .  A
C1765      H1767   1.082       .  S
C1768      C1769   1.398       .  A
C1768      C1773   1.400       .  A
C1768      C2101   1.469       .  S
C1769      C1770   1.396       .  A
C1769      H1774   1.084       .  S
C1770      C1771   1.397       .  A
C1770      C2091   1.464       .  S
C1771      C1772   1.401       .  A
C1771      H1775   1.083       .  S
C1772      C1773   1.402       .  A
C1772      C1790   1.472       .  S
C1773      H1776   1.082       .  S
N1777      N1778   1.323       .  A
N1777      C1781   1.353       .  A
N1777     Cu1785   2.124       .  S
N1778      C1779   1.340       .  A
N1778     Cu1784   2.049       .  S
C1779      C1780   1.379       .  A
C1779      H1782   1.082       .  S
C1780      C1781   1.398       .  A
C1781      H1783   1.081       .  S
Cu1784     N1787   2.047       .  S
Cu1785     N1795   2.124       .  S
Cu1786     N1788   2.044       .  S
Cu1786     N1794   2.045       .  S
N1787      N1788   1.316       .  A
N1787      C1791   1.340       .  A
N1788      C1789   1.340       .  A
C1789      C1790   1.384       .  A
C1789      H1792   1.082       .  S
C1790      C1791   1.385       .  A
C1791      H1793   1.082       .  S
N1794      N1795   1.323       .  A
N1794      C1798   1.340       .  A
N1795      C1796   1.353       .  A
C1796      C1797   1.398       .  A
C1796      H1799   1.081       .  S
C1797      C1798   1.378       .  A
C1798      H1800   1.082       .  S
N1801      N1802   1.323       .  A
N1801      C1805   1.354       .  A
N1801     Cu1809   2.129       .  S
N1802      C1803   1.340       .  A
N1802     Cu1808   2.048       .  S
C1803      C1804   1.379       .  A
C1803      H1806   1.083       .  S
C1804      C1805   1.399       .  A
C1805      H1807   1.081       .  S
Cu1808     N1811   2.047       .  S
Cu1809     N1819   2.129       .  S
Cu1810     N1812   2.047       .  S
Cu1810     N1818   2.048       .  S
N1811      N1812   1.316       .  A
N1811      C1815   1.340       .  A
N1812      C1813   1.340       .  A
C1813      C1814   1.385       .  A
C1813      H1816   1.081       .  S
C1814      C1815   1.385       .  A
C1814      C1827   1.474       .  S
C1815      H1817   1.081       .  S
N1818      N1819   1.323       .  A
N1818      C1822   1.340       .  A
N1819      C1820   1.354       .  A
C1820      C1821   1.399       .  A
C1820      H1823   1.081       .  S
C1821      C1822   1.379       .  A
C1822      H1824   1.082       .  S
C1825      C1826   1.399       .  A
C1825      C1830   1.396       .  A
C1825      C2081   1.466       .  S
C1826      C1827   1.403       .  A
C1826      H1831   1.082       .  S
C1827      C1828   1.402       .  A
C1828      C1829   1.399       .  A
C1828      H1832   1.082       .  S
C1829      C1830   1.396       .  A
C1829      C2068   1.466       .  S
C1830      H1833   1.084       .  S
N1834      N1835   1.323       .  A
N1834      C1838   1.353       .  A
N1834     Cu1842   2.126       .  S
N1835      C1836   1.340       .  A
N1835     Cu1841   2.048       .  S
C1836      C1837   1.379       .  A
C1836      H1839   1.082       .  S
C1837      C1838   1.398       .  A
C1838      H1840   1.082       .  S
Cu1841     N1844   2.047       .  S
Cu1842     N1852   2.126       .  S
Cu1843     N1845   2.046       .  S
Cu1843     N1851   2.047       .  S
N1844      N1845   1.316       .  A
N1844      C1848   1.340       .  A
N1845      C1846   1.340       .  A
C1846      C1847   1.385       .  A
C1846      H1849   1.081       .  S
C1847      C1848   1.385       .  A
C1847      C1862   1.473       .  S
C1848      H1850   1.082       .  S
N1851      N1852   1.323       .  A
N1851      C1855   1.340       .  A
N1852      C1853   1.353       .  A
C1853      C1854   1.398       .  A
C1853      H1856   1.081       .  S
C1854      C1855   1.379       .  A
C1855      H1857   1.082       .  S
C1858      C1859   1.394       .  A
C1858      C1863   1.397       .  A
C1858      C2058   1.461       .  S
C1859      C1860   1.396       .  A
C1859      H1864   1.084       .  S
C1860      C1861   1.399       .  A
C1860      C2078   1.464       .  S
C1861      C1862   1.403       .  A
C1861      H1865   1.082       .  S
C1862      C1863   1.402       .  A
C1863      H1866   1.082       .  S
N1867      N1868   1.323       .  A
N1867      C1871   1.353       .  A
N1867     Cu1875   2.123       .  S
N1868      C1869   1.340       .  A
N1868     Cu1874   2.048       .  S
C1869      C1870   1.379       .  A
C1869      H1872   1.082       .  S
C1870      C1871   1.398       .  A
C1871      H1873   1.081       .  S
Cu1874     N1877   2.047       .  S
Cu1875     N1885   2.124       .  S
Cu1876     N1878   2.047       .  S
Cu1876     N1884   2.048       .  S
N1877      N1878   1.317       .  A
N1877      C1881   1.340       .  A
N1878      C1879   1.340       .  A
C1879      C1880   1.385       .  A
C1879      H1882   1.082       .  S
C1880      C1881   1.385       .  A
C1880      C1895   1.474       .  S
C1881      H1883   1.082       .  S
N1884      N1885   1.323       .  A
N1884      C1888   1.341       .  A
N1885      C1886   1.353       .  A
C1886      C1887   1.398       .  A
C1886      H1889   1.081       .  S
C1887      C1888   1.379       .  A
C1888      H1890   1.082       .  S
C1891      C1892   1.395       .  A
C1891      C1896   1.398       .  A
C1891      C2048   1.464       .  S
C1892      C1893   1.396       .  A
C1892      H1897   1.084       .  S
C1893      C1894   1.399       .  A
C1893      C2071   1.466       .  S
C1894      C1895   1.402       .  A
C1894      H1898   1.082       .  S
C1895      C1896   1.402       .  A
C1896      H1899   1.082       .  S
N1900      N1901   1.323       .  A
N1900      C1904   1.353       .  A
N1900     Cu1908   2.125       .  S
N1901      C1902   1.340       .  A
N1901     Cu1907   2.046       .  S
C1902      C1903   1.378       .  A
C1902      H1905   1.082       .  S
C1903      C1904   1.398       .  A
C1904      H1906   1.081       .  S
Cu1907     N1910   2.045       .  S
Cu1908     N1918   2.126       .  S
Cu1909     N1911   2.046       .  S
Cu1909     N1917   2.047       .  S
N1910      N1911   1.316       .  A
N1910      C1914   1.340       .  A
N1911      C1912   1.340       .  A
C1912      C1913   1.385       .  A
C1912      H1915   1.082       .  S
C1913      C1914   1.385       .  A
C1913      C1926   1.473       .  S
C1914      H1916   1.082       .  S
N1917      N1918   1.323       .  A
N1917      C1921   1.340       .  A
N1918      C1919   1.353       .  A
C1919      C1920   1.398       .  A
C1919      H1922   1.081       .  S
C1920      C1921   1.378       .  A
C1921      H1923   1.083       .  S
C1924      C1925   1.399       .  A
C1924      C1929   1.396       .  A
C1924      C2051   1.464       .  S
C1925      C1926   1.402       .  A
C1925      H1930   1.082       .  S
C1926      C1927   1.402       .  A
C1927      C1928   1.397       .  A
C1927      H1931   1.082       .  S
C1928      C1929   1.395       .  A
C1928      C2038   1.462       .  S
C1929      H1932   1.084       .  S
N1933      N1934   1.323       .  A
N1933      C1937   1.353       .  A
N1933     Cu1941   2.125       .  S
N1934      C1935   1.340       .  A
N1934     Cu1940   2.047       .  S
C1935      C1936   1.379       .  A
C1935      H1938   1.082       .  S
C1936      C1937   1.399       .  A
C1937      H1939   1.081       .  S
Cu1940     N1943   2.046       .  S
Cu1941     N1951   2.125       .  S
Cu1942     N1944   2.045       .  S
Cu1942     N1950   2.046       .  S
N1943      N1944   1.316       .  A
N1943      C1947   1.340       .  A
N1944      C1945   1.340       .  A
C1945      C1946   1.385       .  A
C1945      H1948   1.082       .  S
C1946      C1947   1.385       .  A
C1946      C1959   1.473       .  S
C1947      H1949   1.082       .  S
N1950      N1951   1.323       .  A
N1950      C1954   1.340       .  A
N1951      C1952   1.353       .  A
C1952      C1953   1.398       .  A
C1952      H1955   1.081       .  S
C1953      C1954   1.378       .  A
C1953      C2003   1.489       .  S
C1954      H1956   1.082       .  S
C1957      C1958   1.397       .  A
C1957      C1962   1.395       .  A
C1957      C2061   1.462       .  S
C1958      C1959   1.402       .  A
C1958      H1963   1.082       .  S
C1959      C1960   1.403       .  A
C1960      C1961   1.399       .  A
C1960      H1964   1.082       .  S
C1961      C1962   1.396       .  A
C1961      C2028   1.466       .  S
C1962      H1965   1.084       .  S
N1966      N1967   1.323       .  A
N1966      C1970   1.353       .  A
N1966     Cu1974   2.126       .  S
N1967      C1968   1.340       .  A
N1967     Cu1973   2.048       .  S
C1968      C1969   1.378       .  A
C1968      H1971   1.083       .  S
C1969      C1970   1.398       .  A
C1969      C2012   1.489       .  S
C1970      H1972   1.082       .  S
Cu1973     N1976   2.047       .  S
Cu1974     N1984   2.125       .  S
Cu1975     N1977   2.046       .  S
Cu1975     N1983   2.047       .  S
N1976      N1977   1.316       .  A
N1976      C1980   1.340       .  A
N1977      C1978   1.340       .  A
C1978      C1979   1.385       .  A
C1978      H1981   1.081       .  S
C1979      C1980   1.385       .  A
C1979      C1994   1.474       .  S
C1980      H1982   1.081       .  S
N1983      N1984   1.323       .  A
N1983      C1987   1.340       .  A
N1984      C1985   1.353       .  A
C1985      C1986   1.399       .  A
C1985      H1988   1.081       .  S
C1986      C1987   1.379       .  A
C1987      H1989   1.082       .  S
C1990      C1991   1.396       .  A
C1990      C1995   1.399       .  A
C1990      C2031   1.466       .  S
C1991      C1992   1.395       .  A
C1991      H1996   1.084       .  S
C1992      C1993   1.397       .  A
C1992      C2041   1.463       .  S
C1993      C1994   1.402       .  A
C1993      H1997   1.082       .  S
C1994      C1995   1.403       .  A
C1995      H1998   1.082       .  S
C1999      C2000   1.407       .  A
C1999      C2004   1.406       .  A
C1999      C2021   1.498       .  S
C2000      C2001   1.415       .  A
C2000      H2005   1.082       .  S
C2001      C2002   1.405       .  A
C2002      C2003   1.404       .  A
C2002      H2006   1.082       .  S
C2003      C2004   1.414       .  A
C2004      H2007   1.082       .  S
C2008      C2009   1.406       .  A
C2008      C2013   1.407       .  A
C2008      C2018   1.499       .  S
C2009      C2010   1.415       .  A
C2009      H2014   1.082       .  S
C2010      C2011   1.405       .  A
C2011      C2012   1.404       .  A
C2011      H2015   1.082       .  S
C2012      C2013   1.414       .  A
C2013      H2016   1.082       .  S
C2017      C2018   1.407       .  A
C2017      C2022   1.410       .  A
C2017      H2024   1.083       .  S
C2018      C2019   1.411       .  A
C2019      C2020   1.407       .  A
C2019     Br2026   1.917       .  S
C2020      C2021   1.405       .  A
C2020      H2025   1.083       .  S
C2021      C2022   1.413       .  A
C2022     Br2023   1.918       .  S
C2027      C2028   1.401       .  A
C2027      C2032   1.392       .  A
C2027      H2034   1.084       .  S
C2028      C2029   1.408       .  A
C2029      C2030   1.393       .  A
C2029     Br2036   1.920       .  S
C2030      C2031   1.402       .  A
C2030      H2035   1.084       .  S
C2031      C2032   1.408       .  A
C2032     Br2033   1.921       .  S
C2037      C2038   1.401       .  A
C2037      C2042   1.394       .  A
C2037      H2044   1.084       .  S
C2038      C2039   1.406       .  A
C2039      C2040   1.392       .  A
C2039     Br2046   1.920       .  S
C2040      C2041   1.401       .  A
C2040      H2045   1.084       .  S
C2041      C2042   1.407       .  A
C2042     Br2043   1.920       .  S
C2047      C2048   1.401       .  A
C2047      C2052   1.393       .  A
C2047      H2054   1.084       .  S
C2048      C2049   1.407       .  A
C2049      C2050   1.393       .  A
C2049     Br2056   1.920       .  S
C2050      C2051   1.401       .  A
C2050      H2055   1.084       .  S
C2051      C2052   1.407       .  A
C2052     Br2053   1.920       .  S
C2057      C2058   1.401       .  A
C2057      C2062   1.394       .  A
C2057      H2064   1.083       .  S
C2058      C2059   1.405       .  A
C2059      C2060   1.392       .  A
C2059     Br2066   1.919       .  S
C2060      C2061   1.400       .  A
C2060      H2065   1.083       .  S
C2061      C2062   1.406       .  A
C2062     Br2063   1.919       .  S
C2067      C2068   1.402       .  A
C2067      C2072   1.393       .  A
C2067      H2074   1.084       .  S
C2068      C2069   1.408       .  A
C2069      C2070   1.393       .  A
C2069     Br2076   1.920       .  S
C2070      C2071   1.401       .  A
C2070      H2075   1.083       .  S
C2071      C2072   1.408       .  A
C2072     Br2073   1.920       .  S
C2077      C2078   1.401       .  A
C2077      C2082   1.393       .  A
C2077      H2084   1.084       .  S
C2078      C2079   1.407       .  A
C2079      C2080   1.393       .  A
C2079     Br2086   1.921       .  S
C2080      C2081   1.402       .  A
C2080      H2085   1.084       .  S
C2081      C2082   1.408       .  A
C2082     Br2083   1.920       .  S
C2087      C2088   1.401       .  A
C2087      C2092   1.391       .  A
C2087      H2094   1.084       .  S
C2088      C2089   1.408       .  A
C2089      C2090   1.394       .  A
C2089     Br2096   1.920       .  S
C2090      C2091   1.401       .  A
C2090      H2095   1.083       .  S
C2091      C2092   1.407       .  A
C2092     Br2093   1.921       .  S
C2097      C2098   1.402       .  A
C2097      C2102   1.393       .  A
C2097      H2104   1.084       .  S
C2098      C2099   1.408       .  A
C2099      C2100   1.393       .  A
C2099     Br2106   1.920       .  S
C2100      C2101   1.402       .  A
C2100      H2105   1.083       .  S
C2101      C2102   1.409       .  A
C2102     Br2103   1.921       .  S
C2107      C2108   1.401       .  A
C2107      C2112   1.394       .  A
C2107      H2114   1.083       .  S
C2108      C2109   1.406       .  A
C2109      C2110   1.392       .  A
C2109     Br2116   1.920       .  S
C2110      C2111   1.400       .  A
C2110      H2115   1.083       .  S
C2111      C2112   1.406       .  A
C2112     Br2113   1.919       .  S
C2117      C2118   1.401       .  A
C2117      C2122   1.395       .  A
C2117      H2124   1.084       .  S
C2118      C2119   1.406       .  A
C2119      C2120   1.391       .  A
C2119     Br2126   1.917       .  S
C2120      C2121   1.399       .  A
C2120      H2125   1.084       .  S
C2121      C2122   1.406       .  A
C2122     Br2123   1.919       .  S
C2127      C2128   1.401       .  A
C2127      C2132   1.392       .  A
C2127      H2134   1.084       .  S
C2128      C2129   1.406       .  A
C2129      C2130   1.393       .  A
C2129     Br2136   1.919       .  S
C2130      C2131   1.402       .  A
C2130      H2135   1.083       .  S
C2131      C2132   1.408       .  A
C2132     Br2133   1.921       .  S
C2137      C2138   1.401       .  A
C2137      C2142   1.391       .  A
C2137      H2144   1.084       .  S
C2138      C2139   1.407       .  A
C2139      C2140   1.394       .  A
C2139     Br2146   1.920       .  S
C2140      C2141   1.404       .  A
C2140      H2145   1.084       .  S
C2141      C2142   1.409       .  A
C2142     Br2143   1.918       .  S
C2147      C2148   1.405       .  A
C2147      C2152   1.407       .  A
C2147      H2154   1.083       .  S
C2148      C2149   1.413   1_554  A
C2149      C2150   1.410       .  A
C2149     Br2156   1.918       .  S
C2150      C2151   1.408   1_556  A
C2150      H2155   1.083       .  S
C2151      C2152   1.411       .  A
C2152     Br2153   1.917       .  S
C2157      C2158   1.401       .  A
C2157      C2162   1.393       .  A
C2157      H2164   1.084       .  S
C2158      C2159   1.407       .  A
C2159      C2160   1.392       .  A
C2159     Br2166   1.920       .  S
C2160      C2161   1.402       .  A
C2160      H2165   1.083       .  S
C2161      C2162   1.408       .  A
C2162     Br2163   1.921       .  S
C2167      C2168   1.400       .  A
C2167      C2172   1.394       .  A
C2167      H2174   1.083       .  S
C2168      C2169   1.405       .  A
C2169      C2170   1.392       .  A
C2169     Br2176   1.919       .  S
C2170      C2171   1.399       .  A
C2170      H2175   1.083       .  S
C2171      C2172   1.405       .  A
C2172     Br2173   1.919       .  S
C2177      C2178   1.402       .  A
C2177      C2182   1.393       .  A
C2177      H2184   1.084       .  S
C2178      C2179   1.407       .  A
C2179      C2180   1.393       .  A
C2179     Br2186   1.920       .  S
C2180      C2181   1.402       .  A
C2180      H2185   1.083       .  S
C2181      C2182   1.408       .  A
C2182     Br2183   1.920       .  S
C2187      C2188   1.402       .  A
C2187      C2192   1.393       .  A
C2187      H2194   1.084       .  S
C2188      C2189   1.407       .  A
C2189      C2190   1.392       .  A
C2189     Br2196   1.920       .  S
C2190      C2191   1.401       .  A
C2190      H2195   1.084       .  S
C2191      C2192   1.407       .  A
C2192     Br2193   1.920       .  S
C2197      C2198   1.402       .  A
C2197      C2202   1.393       .  A
C2197      H2204   1.084       .  S
C2198      C2199   1.407       .  A
C2199      C2200   1.393       .  A
C2199     Br2206   1.918       .  S
C2200      C2201   1.401       .  A
C2200      H2205   1.084       .  S
C2201      C2202   1.407       .  A
C2202     Br2203   1.920       .  S
C2207      C2208   1.400       .  A
C2207      C2212   1.392       .  A
C2207      H2214   1.084       .  S
C2208      C2209   1.406       .  A
C2209      C2210   1.393       .  A
C2209     Br2216   1.919       .  S
C2210      C2211   1.402       .  A
C2210      H2215   1.084       .  S
C2211      C2212   1.406       .  A
C2212     Br2213   1.917       .  S
C2217      C2218   1.406       .  A
C2217      C2222   1.406       .  A
C2217      H2224   1.083       .  S
C2218      C2219   1.415   1_545  A
C2219      C2220   1.410       .  A
C2219     Br2226   1.919       .  S
C2220      C2221   1.408   1_565  A
C2220      H2225   1.084       .  S
C2221      C2222   1.413       .  A
C2222     Br2223   1.918       .  S
C2227      C2228   1.407       .  A
C2227      C2232   1.410       .  A
C2227      H2234   1.083       .  S
C2228      C2229   1.411   1_556  A
C2229      C2230   1.406       .  A
C2229     Br2236   1.917       .  S
C2230      C2231   1.405       .  A
C2230      H2235   1.083       .  S
C2231      C2232   1.413   1_554  A
C2232     Br2233   1.918       .  S
C2237      C2238   1.401       .  A
C2237      C2242   1.395       .  A
C2237      H2244   1.084       .  S
C2238      C2239   1.405       .  A
C2239      C2240   1.391       .  A
C2239     Br2246   1.917       .  S
C2240      C2241   1.400       .  A
C2240      H2245   1.084       .  S
C2241      C2242   1.406       .  A
C2242     Br2243   1.919       .  S
C2247      C2248   1.401       .  A
C2247      C2252   1.391       .  A
C2247      H2254   1.084       .  S
C2248      C2249   1.408       .  A
C2249      C2250   1.394       .  A
C2249     Br2256   1.921       .  S
C2250      C2251   1.404       .  A
C2250      H2255   1.084       .  S
C2251      C2252   1.409       .  A
C2252     Br2253   1.918       .  S
C2257      C2258   1.401       .  A
C2257      C2262   1.393       .  A
C2257      H2264   1.084       .  S
C2258      C2259   1.406       .  A
C2259      C2260   1.392       .  A
C2259     Br2266   1.919       .  S
C2260      C2261   1.402       .  A
C2260      H2265   1.083       .  S
C2261      C2262   1.408       .  A
C2262     Br2263   1.921       .  S
C2267      C2268   1.402       .  A
C2267      C2272   1.394       .  A
C2267      H2274   1.084       .  S
C2268      C2269   1.408       .  A
C2269      C2270   1.392       .  A
C2269     Br2276   1.921       .  S
C2270      C2271   1.401       .  A
C2270      H2275   1.084       .  S
C2271      C2272   1.408       .  A
C2272     Br2273   1.920       .  S
C2277      C2278   1.401       .  A
C2277      C2282   1.393       .  A
C2277      H2284   1.084       .  S
C2278      C2279   1.407       .  A
C2279      C2280   1.392       .  A
C2279     Br2286   1.920       .  S
C2280      C2281   1.401       .  A
C2280      H2285   1.084       .  S
C2281      C2282   1.408       .  A
C2282     Br2283   1.920       .  S
C2287      C2288   1.402       .  A
C2287      C2292   1.392       .  A
C2287      H2294   1.083       .  S
C2288      C2289   1.409       .  A
C2289      C2290   1.394       .  A
C2289     Br2296   1.920       .  S
C2290      C2291   1.402       .  A
C2290      H2295   1.083       .  S
C2291      C2292   1.408       .  A
C2292     Br2293   1.921       .  S
C2297      C2298   1.405   1_565  A
C2297      C2302   1.407       .  A
C2297      H2304   1.083       .  S
C2298      C2299   1.413       .  A
C2299      C2300   1.410       .  A
C2299     Br2306   1.918       .  S
C2300      C2301   1.407       .  A
C2300      H2305   1.083       .  S
C2301      C2302   1.411   1_545  A
C2302     Br2303   1.917       .  S
C2307      C2308   1.401       .  A
C2307      C2312   1.391       .  A
C2307      H2314   1.084       .  S
C2308      C2309   1.407       .  A
C2309      C2310   1.394       .  A
C2309     Br2316   1.920       .  S
C2310      C2311   1.404       .  A
C2310      H2315   1.084       .  S
C2311      C2312   1.409       .  A
C2312     Br2313   1.918       .  S
C2317      C2318   1.402       .  A
C2317      C2322   1.393       .  A
C2317      H2324   1.083       .  S
C2318      C2319   1.409       .  A
C2319      C2320   1.392       .  A
C2319     Br2326   1.921       .  S
C2320      C2321   1.401       .  A
C2320      H2325   1.084       .  S
C2321      C2322   1.407       .  A
C2322     Br2323   1.920       .  S
C2327      C2328   1.401       .  A
C2327      C2332   1.392       .  A
C2327      H2334   1.084       .  S
C2328      C2329   1.407       .  A
C2329      C2330   1.393       .  A
C2329     Br2336   1.920       .  S
C2330      C2331   1.402       .  A
C2330      H2335   1.084       .  S
C2331      C2332   1.407       .  A
C2332     Br2333   1.920       .  S
C2337      C2338   1.400       .  A
C2337      C2342   1.394       .  A
C2337      H2344   1.084       .  S
C2338      C2339   1.405       .  A
C2339      C2340   1.393       .  A
C2339     Br2346   1.918       .  S
C2340      C2341   1.399       .  A
C2340      H2345   1.084       .  S
C2341      C2342   1.405       .  A
C2342     Br2343   1.919       .  S
C2347      C2348   1.400       .  A
C2347      C2352   1.391       .  A
C2347      H2354   1.084       .  S
C2348      C2349   1.406       .  A
C2349      C2350   1.394       .  A
C2349     Br2356   1.919       .  S
C2350      C2351   1.401       .  A
C2350      H2355   1.084       .  S
C2351      C2352   1.405       .  A
C2352     Br2353   1.917       .  S
C2357      C2358   1.401       .  A
C2357      C2362   1.393       .  A
C2357      H2364   1.084       .  S
C2358      C2359   1.407       .  A
C2359      C2360   1.393       .  A
C2359     Br2366   1.920       .  S
C2360      C2361   1.401       .  A
C2360      H2365   1.084       .  S
C2361      C2362   1.407       .  A
C2362     Br2363   1.919       .  S
C2367      C2368   1.409   1_455  A
C2367      C2372   1.410       .  A
C2367      H2374   1.083       .  S
C2368      C2369   1.416       .  A
C2369      C2370   1.407       .  A
C2369     Br2376   1.919       .  S
C2370      C2371   1.407       .  A
C2370      H2375   1.083       .  S
C2371      C2372   1.417   1_655  A
C2372     Br2373   1.920       .  S
C2377      C2378   1.405       .  A
C2377      C2382   1.407       .  A
C2377      H2384   1.083       .  S
C2378      C2379   1.413   1_545  A
C2379      C2380   1.410       .  A
C2379     Br2386   1.918       .  S
C2380      C2381   1.407   1_565  A
C2380      H2385   1.083       .  S
C2381      C2382   1.411       .  A
C2382     Br2383   1.917       .  S
C2387      C2388   1.408   1_556  A
C2387      C2392   1.410       .  A
C2387      H2394   1.084       .  S
C2388      C2389   1.414       .  A
C2389      C2390   1.406       .  A
C2389     Br2396   1.918       .  S
C2390      C2391   1.406       .  A
C2390      H2395   1.083       .  S
C2391      C2392   1.416   1_554  A
C2392     Br2393   1.920       .  S
C2397      C2398   1.401       .  A
C2397      C2402   1.394       .  A
C2397      H2404   1.084       .  S
C2398      C2399   1.406       .  A
C2399      C2400   1.391       .  A
C2399     Br2406   1.920       .  S
C2400      C2401   1.400       .  A
C2400      H2405   1.084       .  S
C2401      C2402   1.407       .  A
C2402     Br2403   1.920       .  S
C2407      C2408   1.401       .  A
C2407      C2412   1.392       .  A
C2407      H2414   1.084       .  S
C2408      C2409   1.407       .  A
C2409      C2410   1.393       .  A
C2409     Br2416   1.920       .  S
C2410      C2411   1.401       .  A
C2410      H2415   1.083       .  S
C2411      C2412   1.408       .  A
C2412     Br2413   1.921       .  S
C2417      C2418   1.401       .  A
C2417      C2422   1.393       .  A
C2417      H2424   1.084       .  S
C2418      C2419   1.408       .  A
C2419      C2420   1.392       .  A
C2419     Br2426   1.921       .  S
C2420      C2421   1.402       .  A
C2420      H2425   1.084       .  S
C2421      C2422   1.408       .  A
C2422     Br2423   1.921       .  S
C2427      C2428   1.402       .  A
C2427      C2432   1.393       .  A
C2427      H2434   1.083       .  S
C2428      C2429   1.409       .  A
C2429      C2430   1.393       .  A
C2429     Br2436   1.921       .  S
C2430      C2431   1.402       .  A
C2430      H2435   1.084       .  S
C2431      C2432   1.408       .  A
C2432     Br2433   1.920       .  S
C2437      C2438   1.400       .  A
C2437      C2442   1.393       .  A
C2437      H2444   1.084       .  S
C2438      C2439   1.406       .  A
C2439      C2440   1.393       .  A
C2439     Br2446   1.920       .  S
C2440      C2441   1.401       .  A
C2440      H2445   1.084       .  S
C2441      C2442   1.407       .  A
C2442     Br2443   1.919       .  S
C2447      C2448   1.402       .  A
C2447      C2452   1.394       .  A
C2447      H2454   1.084       .  S
C2448      C2449   1.407       .  A
C2449      C2450   1.392       .  A
C2449     Br2456   1.920       .  S
C2450      C2451   1.401       .  A
C2450      H2455   1.084       .  S
C2451      C2452   1.408       .  A
C2452     Br2453   1.920       .  S
C2457      C2458   1.409   1_455  A
C2457      C2462   1.410       .  A
C2457      H2464   1.083       .  S
C2458      C2459   1.415       .  A
C2459      C2460   1.407       .  A
C2459     Br2466   1.919       .  S
C2460      C2461   1.407       .  A
C2460      H2465   1.083       .  S
C2461      C2462   1.417   1_655  A
C2462     Br2463   1.920       .  S
C2467      C2468   1.407       .  A
C2467      C2472   1.411       .  A
C2467      H2474   1.083       .  S
C2468      C2469   1.410   1_554  A
C2469      C2470   1.407       .  A
C2469     Br2476   1.916       .  S
C2470      C2471   1.405       .  A
C2470      H2475   1.083       .  S
C2471      C2472   1.413   1_556  A
C2472     Br2473   1.918       .  S
C2477      C2478   1.402       .  A
C2477      C2482   1.393       .  A
C2477      H2484   1.083       .  S
C2478      C2479   1.409       .  A
C2479      C2480   1.393       .  A
C2479     Br2486   1.921       .  S
C2480      C2481   1.402       .  A
C2480      H2485   1.084       .  S
C2481      C2482   1.408       .  A
C2482     Br2483   1.920       .  S
C2487      C2488   1.401       .  A
C2487      C2492   1.394       .  A
C2487      H2494   1.084       .  S
C2488      C2489   1.406       .  A
C2489      C2490   1.391       .  A
C2489     Br2496   1.920       .  S
C2490      C2491   1.400       .  A
C2490      H2495   1.084       .  S
C2491      C2492   1.407       .  A
C2492     Br2493   1.920       .  S
C2497      C2498   1.401       .  A
C2497      C2502   1.393       .  A
C2497      H2504   1.083       .  S
C2498      C2499   1.408       .  A
C2499      C2500   1.393       .  A
C2499     Br2506   1.921       .  S
C2500      C2501   1.402       .  A
C2500      H2505   1.084       .  S
C2501      C2502   1.408       .  A
C2502     Br2503   1.920       .  S
C2507      C2508   1.400       .  A
C2507      C2512   1.392       .  A
C2507      H2514   1.084       .  S
C2508      C2509   1.408       .  A
C2509      C2510   1.394       .  A
C2509     Br2516   1.920       .  S
C2510      C2511   1.402       .  A
C2510      H2515   1.083       .  S
C2511      C2512   1.408       .  A
C2512     Br2513   1.920       .  S
C2517      C2518   1.401       .  A
C2517      C2522   1.392       .  A
C2517      H2524   1.083       .  S
C2518      C2519   1.408       .  A
C2519      C2520   1.393       .  A
C2519     Br2526   1.920       .  S
C2520      C2521   1.402       .  A
C2520      H2525   1.083       .  S
C2521      C2522   1.408       .  A
C2522     Br2523   1.920       .  S
C2527      C2528   1.401       .  A
C2527      C2532   1.393       .  A
C2527      H2534   1.084       .  S
C2528      C2529   1.406       .  A
C2529      C2530   1.392       .  A
C2529     Br2536   1.920       .  S
C2530      C2531   1.401       .  A
C2530      H2535   1.084       .  S
C2531      C2532   1.407       .  A
C2532     Br2533   1.920       .  S
C2537      C2538   1.409   1_565  A
C2537      C2542   1.411       .  A
C2537      H2544   1.083       .  S
C2538      C2539   1.414       .  A
C2539      C2540   1.407       .  A
C2539     Br2546   1.918       .  S
C2540      C2541   1.406   1_545  A
C2540      H2545   1.083       .  S
C2541      C2542   1.416       .  A
C2542     Br2543   1.920       .  S
C2547      C2548   1.407   1_455  A
C2547      C2552   1.407       .  A
C2547      H2554   1.083       .  S
C2548      C2549   1.417       .  A
C2549      C2550   1.410       .  A
C2549     Br2556   1.920       .  S
C2550      C2551   1.409       .  A
C2550      H2555   1.083       .  S
C2551      C2552   1.415   1_655  A
C2552     Br2553   1.919       .  S
C2557      C2558   1.402       .  A
C2557      C2562   1.393       .  A
C2557      H2564   1.084       .  S
C2558      C2559   1.408       .  A
C2559      C2560   1.393       .  A
C2559     Br2566   1.920       .  S
C2560      C2561   1.401       .  A
C2560      H2565   1.084       .  S
C2561      C2562   1.408       .  A
C2562     Br2563   1.921       .  S
C2567      C2568   1.401       .  A
C2567      C2572   1.392       .  A
C2567      H2574   1.084       .  S
C2568      C2569   1.408       .  A
C2569      C2570   1.394       .  A
C2569     Br2576   1.920       .  S
C2570      C2571   1.401       .  A
C2570      H2575   1.083       .  S
C2571      C2572   1.407       .  A
C2572     Br2573   1.920       .  S
C2577      C2578   1.400       .  A
C2577      C2582   1.391       .  A
C2577      H2584   1.084       .  S
C2578      C2579   1.407       .  A
C2579      C2580   1.395       .  A
C2579     Br2586   1.919       .  S
C2580      C2581   1.401       .  A
C2580      H2585   1.084       .  S
C2581      C2582   1.406       .  A
C2582     Br2583   1.916       .  S
C2587      C2588   1.405       .  A
C2587      C2592   1.395       .  A
C2587      H2594   1.084       .  S
C2588      C2589   1.409       .  A
C2589      C2590   1.390       .  A
C2589     Br2596   1.917       .  S
C2590      C2591   1.401       .  A
C2590      H2595   1.084       .  S
C2591      C2592   1.407       .  A
C2592     Br2593   1.920       .  S
C2597      C2598   1.402       .  A
C2597      C2602   1.392       .  A
C2597      H2604   1.084       .  S
C2598      C2599   1.408       .  A
C2599      C2600   1.394       .  A
C2599     Br2606   1.920       .  S
C2600      C2601   1.402       .  A
C2600      H2605   1.084       .  S
C2601      C2602   1.407       .  A
C2602     Br2603   1.920       .  S
C2607      C2608   1.401       .  A
C2607      C2612   1.392       .  A
C2607      H2614   1.084       .  S
C2608      C2609   1.409       .  A
C2609      C2610   1.394       .  A
C2609     Br2616   1.920       .  S
C2610      C2611   1.400       .  A
C2610      H2615   1.084       .  S
C2611      C2612   1.408       .  A
C2612     Br2613   1.921       .  S
C2617      C2618   1.406   1_455  A
C2617      C2622   1.407       .  A
C2617      H2624   1.083       .  S
C2618      C2619   1.416       .  A
C2619      C2620   1.410       .  A
C2619     Br2626   1.920       .  S
C2620      C2621   1.409       .  A
C2620      H2625   1.083       .  S
C2621      C2622   1.414   1_655  A
C2622     Br2623   1.918       .  S
C2627      C2628   1.408       .  A
C2627      C2632   1.410       .  A
C2627      H2634   1.083       .  S
C2628      C2629   1.414       .  A
C2629      C2630   1.407       .  A
C2629     Br2636   1.919       .  S
C2630      C2631   1.406       .  A
C2630      H2635   1.083       .  S
C2631      C2632   1.416       .  A
C2632     Br2633   1.920       .  S
C2637      C2638   1.409       .  A
C2637      C2642   1.410       .  A
C2637      H2644   1.083       .  S
C2638      C2639   1.415       .  A
C2639      C2640   1.407       .  A
C2639     Br2646   1.919       .  S
C2640      C2641   1.407       .  A
C2640      H2645   1.083       .  S
C2641      C2642   1.417       .  A
C2642     Br2643   1.920       .  S
C2647      C2648   1.405       .  A
C2647      C2652   1.407       .  A
C2647      H2654   1.083       .  S
C2648      C2649   1.413       .  A
C2649      C2650   1.411       .  A
C2649     Br2656   1.918       .  S
C2650      C2651   1.408       .  A
C2650      H2655   1.083       .  S
C2651      C2652   1.411       .  A
C2652     Br2653   1.917       .  S
C2657      C2658   1.406       .  A
C2657      C2662   1.406       .  A
C2657      H2664   1.083       .  S
C2658      C2659   1.416       .  A
C2659      C2660   1.410       .  A
C2659     Br2666   1.920       .  S
C2660      C2661   1.408       .  A
C2660      H2665   1.083       .  S
C2661      C2662   1.414       .  A
C2662     Br2663   1.919       .  S
C2667      C2668   1.405       .  A
C2667      C2672   1.407       .  A
C2667      H2674   1.083       .  S
C2668      C2669   1.413       .  A
C2669      C2670   1.411       .  A
C2669     Br2676   1.918       .  S
C2670      C2671   1.408       .  A
C2670      H2675   1.084       .  S
C2671      C2672   1.411       .  A
C2672     Br2673   1.917       .  S
C2677      C2678   1.409       .  A
C2677      C2682   1.410       .  A
C2677      H2684   1.083       .  S
C2678      C2679   1.415       .  A
C2679      C2680   1.407       .  A
C2679     Br2686   1.919       .  S
C2680      C2681   1.407       .  A
C2680      H2685   1.083       .  S
C2681      C2682   1.416       .  A
C2682     Br2683   1.920       .  S
C2687      C2688   1.406       .  A
C2687      C2692   1.406       .  A
C2687      H2694   1.083       .  S
C2688      C2689   1.415       .  A
C2689      C2690   1.410       .  A
C2689     Br2696   1.920       .  S
C2690      C2691   1.408       .  A
C2690      H2695   1.083       .  S
C2691      C2692   1.413       .  A
C2692     Br2693   1.918       .  S
C2697      C2698   1.407       .  A
C2697      C2702   1.410       .  A
C2697      H2704   1.083       .  S
C2698      C2699   1.410       .  A
C2699      C2700   1.407       .  A
C2699     Br2706   1.916       .  S
C2700      C2701   1.405       .  A
C2700      H2705   1.083       .  S
C2701      C2702   1.413       .  A
C2702     Br2703   1.918       .  S
C2707      C2708   1.407       .  A
C2707      C2712   1.407       .  A
C2707      H2714   1.083       .  S
C2708      C2709   1.416       .  A
C2709      C2710   1.410       .  A
C2709     Br2716   1.920       .  S
C2710      C2711   1.409       .  A
C2710      H2715   1.083       .  S
C2711      C2712   1.415       .  A
C2712     Br2713   1.919       .  S
C2717      C2718   1.406       .  A
C2717      C2722   1.406       .  A
C2717      H2724   1.083       .  S
C2718      C2719   1.415       .  A
C2719      C2720   1.410       .  A
C2719     Br2726   1.920       .  S
C2720      C2721   1.408       .  A
C2720      H2725   1.084       .  S
C2721      C2722   1.414       .  A
C2722     Br2723   1.918       .  S
C2727      C2728   1.407       .  A
C2727      C2732   1.411       .  A
C2727      H2734   1.083       .  S
C2728      C2729   1.410       .  A
C2729      C2730   1.407       .  A
C2729     Br2736   1.916       .  S
C2730      C2731   1.405       .  A
C2730      H2735   1.083       .  S
C2731      C2732   1.412       .  A
C2732     Br2733   1.918       .  S
