geometry optimzed in LAMMPS
_audit_creation_date              2020-12-01 
_audit_creation_method            'lammps2cif' 
_symmetry_space_group_name_H-M    'P1' 
_symmetry_Int_Tables_number       1 
_symmetry_cell_setting            triclinic 
loop_ 
_symmetry_equiv_pos_as_xyz 
  x,y,z 
_cell_length_a                    39.80728996 
_cell_length_b                    39.64209467973264 
_cell_length_c                    103.91352490184424 
_cell_angle_alpha                 89.71201668362669 
_cell_angle_beta                  90.00848837047488 
_cell_angle_gamma                 121.1667811682682 
loop_ 
_atom_site_label 
_atom_site_type_symbol 
_atom_site_fract_x 
_atom_site_fract_y 
_atom_site_fract_z 
_atom_site_charge 
N1          N  0.07303096  0.07617363  0.89375767    -0.26900
N2          N  0.04799298  0.06929825  0.88433403    -0.34800
C3          C  0.06764899  0.09257563  0.87422830     0.01400
C4          C  0.10729046  0.11404973  0.87721646     0.07400
C5          C  0.10933628  0.10338110  0.88978513    -0.05700
H6          H  0.05401013  0.09286214  0.86525744     0.08100
H7          H  0.13556451  0.11383896  0.89551500     0.09300
Cu8        Cu  0.32370194  0.02239064  0.88433946     0.44200
Cu9        Cu  0.05754569  0.04737180  0.91145162     0.42000
Cu10       Cu  0.29828336  0.28976655  0.91090988     0.43900
N11         N  0.27723863  0.29925283  0.88368562    -0.34300
N12         N  0.27021200  0.27412479  0.89318540    -0.28600
C13         C  0.24331610  0.23764348  0.88930550    -0.04700
C14         C  0.23293879  0.23954860  0.87670326     0.07600
C15         C  0.25442947  0.27939736  0.87357834     0.01400
H16         H  0.23270834  0.21137608  0.89515333     0.09000
H17         H  0.25427701  0.29302382  0.86455058     0.08100
N18         N  0.32952554  0.31443128  0.92773773    -0.35800
N19         N  0.03226120  0.01368994  0.92792460    -0.27900
C20         C  0.04379960  0.02310156  0.94023222    -0.03200
C21         C  0.01440297  0.32826063  0.94819016     0.05400
C22         C  0.31917679  0.30122455  0.93989794     0.03500
H23         H  0.06935351  0.05055376  0.94317258     0.08600
H24         H  0.29233664  0.27427719  0.94243924     0.07500
N25         N  0.09666697  0.04958981  0.79202852    -0.26900
N26         N  0.08956732  0.02466863  0.80160877    -0.34800
C27         C  0.11192530  0.04464522  0.81175322     0.01400
C28         C  0.13327641  0.08438603  0.80861328     0.07400
C29         C  0.12331106  0.08618340  0.79593183    -0.05700
H30         H  0.11221814  0.03104849  0.82076914     0.08100
H31         H  0.13434594  0.11236468  0.79000837     0.09300
Cu32       Cu  0.04457528  0.29823937  0.80166920     0.44200
Cu33       Cu  0.06977154  0.03316053  0.77406349     0.42000
Cu34       Cu  0.31283341  0.27005576  0.77382787     0.43900
N35         N  0.32068143  0.25111054  0.80149844    -0.34300
N36         N  0.29644536  0.24315985  0.79174112    -0.28600
C37         C  0.25984332  0.21654842  0.79557221    -0.04700
C38         C  0.26083092  0.20734014  0.80839438     0.07600
C39         C  0.30021270  0.22898828  0.81169832     0.01400
H40         H  0.23411903  0.20567420  0.78955671     0.09000
H41         H  0.31315322  0.22966932  0.82091744     0.08100
N42         N  0.33731230  0.30300397  0.75724138    -0.35800
N43         N  0.03854778  0.00725875  0.75726528    -0.27900
C44         C  0.04790520  0.02032311  0.74504336    -0.03200
C45         C  0.01758552  0.32332373  0.73689763     0.05400
C46         C  0.32492681  0.29307520  0.74504438     0.03500
H47         H  0.07396973  0.04771773  0.74227349     0.08600
H48         H  0.29925466  0.26538731  0.74236793     0.07500
N49         N  0.28047305  0.32594745  0.45786613    -0.26900
N50         N  0.30268853  0.33700706  0.46824518    -0.34800
C51         C  0.28313547  0.34098213  0.47806389     0.01400
C52         C  0.24594236  0.33085369  0.47392103     0.07400
C53         C  0.24559907  0.32189881  0.46093323    -0.05700
H54         H  0.29590460  0.35208640  0.48741864     0.08100
H55         H  0.22224597  0.31425334  0.45410629     0.09300
Cu56       Cu  0.02565445  0.34698455  0.46863126     0.44200
Cu57       Cu  0.30253894  0.32228770  0.43996005     0.42000
Cu58       Cu  0.07385345  0.34990004  0.43914125     0.43900
N59         N  0.08044981  0.35320830  0.46793568    -0.34300
N60         N  0.09952259  0.35657607  0.45717399    -0.28600
C61         C  0.13424023  0.36035261  0.46015472    -0.04700
C62         C  0.13717141  0.35894412  0.47350847     0.07600
C63         C  0.10174146  0.35343950  0.47798176     0.01400
H64         H  0.15500014  0.36235948  0.45303598     0.09000
H65         H  0.09081159  0.34768479  0.48775366     0.08100
N66         N  0.03851295  0.33808213  0.42293402    -0.35800
N67         N  0.33457700  0.32811496  0.42322124    -0.27900
C68         C  0.32141913  0.32400403  0.41104929    -0.03200
C69         C  0.01831958  0.33161465  0.40260023     0.05400
C70         C  0.04980802  0.34035305  0.41058348     0.03500
H71         H  0.29194141  0.31644479  0.40860783     0.08600
H72         H  0.07915048  0.34844013  0.40769827     0.07500
N73         N  0.09734321  0.35562243  0.55947331    -0.26900
N74         N  0.07851206  0.35213891  0.54866610    -0.34800
C75         C  0.10029827  0.35303653  0.53866223     0.01400
C76         C  0.13578411  0.35895253  0.54322036     0.07400
C77         C  0.13238068  0.36002648  0.55657724    -0.05700
H78         H  0.08971597  0.34745905  0.52886936     0.08100
H79         H  0.15303494  0.36220800  0.56376140     0.09300
Cu80       Cu  0.02362512  0.34534543  0.54812017     0.44200
Cu81       Cu  0.07075981  0.34838941  0.57743916     0.42000
Cu82       Cu  0.30133314  0.32495683  0.57751832     0.43900
N83         N  0.30197984  0.33827470  0.54904379    -0.34300
N84         N  0.28027215  0.32879006  0.55955788    -0.28600
C85         C  0.24567820  0.32527775  0.55652852    -0.04700
C86         C  0.24569278  0.33295295  0.54343374     0.07600
C87         C  0.28245555  0.34201371  0.53918038     0.01400
H88         H  0.22262676  0.31843056  0.56342365     0.09000
H89         H  0.29490301  0.35184935  0.52967612     0.08100
N90         N  0.33248344  0.32717212  0.59393550    -0.35800
N91         N  0.03598199  0.33561114  0.59392189    -0.27900
C92         C  0.04701484  0.33519189  0.60614371    -0.03200
C93         C  0.01585595  0.32634412  0.61432316     0.05400
C94         C  0.31934816  0.32141918  0.60615589     0.03500
H95         H  0.07601411  0.34174209  0.60883701     0.08600
H96         H  0.29017673  0.31442685  0.60883386     0.07500
N97         N  0.99999100  0.25985339  0.12619433    -0.26900
N98         N  0.98775994  0.27079780  0.13621012    -0.34800
C99         C  0.97920491  0.24519259  0.14591923     0.01400
C100        C  0.98885791  0.21761439  0.14223545     0.07400
C101        C  0.00138964  0.22776092  0.12949034    -0.05700
H102        H  0.96575864  0.24633381  0.15480850     0.08100
H103        H  0.01014209  0.21260503  0.12293334     0.09300
Cu104      Cu  0.98583296  0.32131965  0.13630750     0.44200
Cu105      Cu  0.00738674  0.28647928  0.10824561     0.42000
Cu106      Cu  0.97624304  0.02626864  0.10649504     0.43900
N107        N  0.98811915  0.04020682  0.13476580    -0.34300
N108        N  0.97710025  0.05079468  0.12430050    -0.28600
C109        C  0.97001013  0.07950728  0.12745530    -0.04700
C110        C  0.97701429  0.08708390  0.14057907     0.07600
C111        C  0.99023887  0.06269779  0.14462811     0.01400
H112        H  0.96024325  0.09355047  0.12072721     0.09000
H113        H  0.00014281  0.06060611  0.15412520     0.08100
N114        N  0.98883058  0.00246921  0.09061399    -0.35800
N115        N  0.00041801  0.31049316  0.09126637    -0.27900
C116        C  0.00614371  0.30191601  0.07925420    -0.03200
C117        C  0.99749673  0.32300195  0.07052863     0.05400
C118        C  0.98663645  0.01053956  0.07814211     0.03500
H119        H  0.01568520  0.28150713  0.07711256     0.08600
H120        H  0.97744574  0.03049570  0.07492371     0.07500
N121        N  0.95894462  0.23373817  0.22717527    -0.26900
N122        N  0.94185722  0.24061369  0.21745135    -0.34800
C123        C  0.93787172  0.21683064  0.20762938     0.01400
C124        C  0.95362535  0.19417197  0.21129613     0.07400
C125        C  0.96612380  0.20530692  0.22382842    -0.05700
H126        H  0.92517011  0.21663453  0.19840100     0.08100
H127        H  0.98057215  0.19446594  0.22992745     0.09300
Cu128      Cu  0.92901196  0.28520606  0.21753707     0.44200
Cu129      Cu  0.97449191  0.26551512  0.24417239     0.42000
Cu130      Cu  0.97685525  0.02230862  0.24368047     0.43900
N131        N  0.93682707  0.00818589  0.21789642    -0.34300
N132        N  0.95726100  0.03484444  0.22673839    -0.28600
C133        C  0.96269984  0.06974190  0.22284412    -0.04700
C134        C  0.94491689  0.06521620  0.21092565     0.07600
C135        C  0.92734360  0.02506488  0.20843591     0.01400
H136        H  0.97965876  0.09692538  0.22812116     0.09000
H137        H  0.90883531  0.00865930  0.20045312     0.09600
N138        N  0.98860636  0.33542846  0.25979606    -0.35800
N139        N  0.98821018  0.30190654  0.26004761    -0.27900
C140        C  0.99551371  0.29495902  0.27210821    -0.03200
C141        C  0.00056177  0.32545435  0.27997900     0.05400
C142        C  0.99721774  0.01536954  0.27201145     0.03500
H143        H  0.99549897  0.26869977  0.27498061     0.08600
H144        H  0.99946535  0.04288820  0.27453865     0.07500
C145        C  0.98351079  0.18259601  0.14966132    -0.10500
C146        C  0.98013420  0.15086661  0.14261083    -0.04300
C147        C  0.97300561  0.11602405  0.14854881    -0.10500
C148        C  0.96470693  0.11080752  0.16196232     0.10500
C149        C  0.96910073  0.14263463  0.16940616    -0.02300
C150        C  0.98076427  0.17934614  0.16335404     0.10300
C151        C  0.99100589  0.21183772  0.17129789    -0.12300
C152        C  0.98306234  0.20704642  0.18443290    -0.12300
C153        C  0.96655837  0.16982494  0.19034268     0.10300
C154        C  0.96241599  0.13792843  0.18299708    -0.02300
C155        C  0.95222143  0.07472304  0.16819958    -0.12400
C156        C  0.94941568  0.07130513  0.18150321    -0.12400
C157        C  0.95288651  0.10189783  0.18922602     0.10500
C158        C  0.94770596  0.09824830  0.20289260    -0.10500
C159        C  0.94818591  0.12915413  0.20962398    -0.04300
C160        C  0.95644577  0.16427585  0.20355466    -0.10500
H161        H  0.00666079  0.24160805  0.16761602     0.07700
H162        H  0.99148078  0.23322677  0.18999001     0.07700
H163        H  0.94398639  0.04818374  0.16293867     0.07900
H164        H  0.94419318  0.04402129  0.18530899     0.07900
H165        H  0.98396411  0.15344230  0.13229268     0.04400
H166        H  0.94181611  0.12574519  0.21985115     0.04400
C167        C  0.20400187  0.20534006  0.86884806    -0.10500
C168        C  0.17006260  0.17676958  0.87521856    -0.04300
C169        C  0.14117330  0.14259994  0.86912593    -0.10500
C170        C  0.14632696  0.13637183  0.85599545     0.10500
C171        C  0.18061282  0.16485411  0.84927498    -0.02300
C172        C  0.20961457  0.19936518  0.85572514     0.10300
C173        C  0.24356690  0.22632978  0.84890058    -0.12300
C174        C  0.24820349  0.22091320  0.83596995    -0.12300
C175        C  0.22081636  0.18654820  0.82945189     0.10300
C176        C  0.18632901  0.15833386  0.83613768    -0.02300
C177        C  0.11875995  0.10222089  0.84943144    -0.12400
C178        C  0.12306962  0.09720073  0.83645128    -0.12400
C179        C  0.15707646  0.12408201  0.82964384     0.10500
C180        C  0.16249929  0.11823362  0.81649865    -0.10500
C181        C  0.19690015  0.14609840  0.81023017    -0.04300
C182        C  0.22621158  0.17985927  0.81638412    -0.10500
H183        H  0.26731557  0.25211337  0.85337062     0.07700
H184        H  0.27349760  0.24466265  0.83123096     0.07700
H185        H  0.09336602  0.07850076  0.85413549     0.07900
H186        H  0.09904994  0.07173244  0.83194294     0.07900
H187        H  0.16573038  0.18151123  0.88519909     0.04400
H188        H  0.20126327  0.14097066  0.80029423     0.04400
C189        C  0.16780836  0.35626615  0.48110443    -0.10500
C190        C  0.19194902  0.34547147  0.47465333    -0.04300
C191        C  0.21616506  0.33531246  0.48133106    -0.10500
C192        C  0.21312258  0.33216130  0.49495781     0.10500
C193        C  0.19222555  0.34671772  0.50165859    -0.02300
C194        C  0.17151654  0.36105758  0.49470314     0.10300
C195        C  0.15640015  0.38082002  0.50157567    -0.12300
C196        C  0.15594258  0.38071845  0.51500392    -0.12300
C197        C  0.17085687  0.36110597  0.52211298     0.10300
C198        C  0.19195145  0.34682190  0.51537897    -0.02300
C199        C  0.22912604  0.31361504  0.50207953    -0.12400
C200        C  0.22881204  0.31369309  0.51546731    -0.12400
C201        C  0.21270206  0.33252812  0.52231169     0.10500
C202        C  0.21565594  0.33641836  0.53589529    -0.10500
C203        C  0.19066617  0.01400003  0.54249508    -0.04300
C204        C  0.16680810  0.35660435  0.53574041    -0.10500
H205        H  0.14586126  0.39762222  0.49664834     0.07700
H206        H  0.14499125  0.39734707  0.51974477     0.07700
H207        H  0.24103467  0.29777800  0.49738314     0.07900
H208        H  0.24035231  0.29776513  0.52038758     0.07900
H209        H  0.19200292  0.34490263  0.46426891     0.04400
H210        H  0.19089286  0.01415037  0.55288027     0.04400
C211        C  0.00600876  0.32841027  0.29423118    -0.03000
C212        C  0.01677790  0.96791388  0.30100771    -0.08700
C213        C  0.01836494  0.30463848  0.31438731    -0.16400
C214        C  0.01218804  0.33103994  0.32140648     0.25700
C215        C  0.33682351  0.35656085  0.31481541    -0.18100
C216        C  0.33384402  0.35534772  0.30136040    -0.07000
C217        C  0.34733494  0.33152785  0.33533138    -0.13400
C218        C  0.01504726  0.33165314  0.34699465    -0.13200
C219        C  0.01592973  0.33172776  0.36093903     0.25600
C220        C  0.31605079  0.32396913  0.36801742    -0.18600
C221        C  0.31679433  0.32390741  0.38150623    -0.07000
C222        C  0.01750334  0.33161386  0.38821005    -0.03100
C223        C  0.04883861  0.00008855  0.38128747    -0.08400
C224        C  0.04995815  0.33951342  0.36748005    -0.16100
H225        H  0.02178307  0.94730064  0.29582476     0.12100
H226        H  0.02725216  0.94953745  0.31932920     0.11400
H227        H  0.33194663  0.37715196  0.32009598     0.11300
H228        H  0.32645827  0.37500292  0.29662045     0.11800
H229        H  0.28947102  0.31786303  0.36311344     0.11900
H230        H  0.29055758  0.31775781  0.38662372     0.11900
H231        H  0.07402805  0.00262574  0.38616931     0.12000
H232        H  0.07312235  0.00169918  0.36263794     0.10800
C233        C  0.01653487  0.32443636  0.72255344    -0.03000
C234        C  0.31823688  0.29402097  0.71568744    -0.08700
C235        C  0.31790283  0.29430060  0.70221433    -0.16400
C236        C  0.01574484  0.32494502  0.69533667     0.25700
C237        C  0.05056778  0.01646956  0.70193724    -0.18100
C238        C  0.05188384  0.01674404  0.71541024    -0.07000
C239        C  0.01574735  0.32455301  0.68142609    -0.13400
C240        C  0.01553276  0.32386861  0.66978946    -0.13200
C241        C  0.01509641  0.32329515  0.65587887     0.25600
C242        C  0.04763157  0.00022357  0.64938498    -0.18600
C243        C  0.04833584  0.00102567  0.63590422    -0.07000
C244        C  0.01517281  0.32438172  0.62866497    -0.03100
C245        C  0.31748520  0.32294310  0.63568736    -0.08400
C246        C  0.31751685  0.32245659  0.64916429    -0.16100
H247        H  0.29369319  0.26976055  0.72065331     0.12100
H248        H  0.29339141  0.27040269  0.69715561     0.11400
H249        H  0.07751449  0.03388251  0.69652184     0.11300
H250        H  0.07999149  0.03424736  0.72010663     0.11800
H251        H  0.07402976  0.00725992  0.65460212     0.11900
H252        H  0.07548258  0.00871890  0.63109267     0.11900
H253        H  0.29340996  0.32283117  0.63082729     0.12000
H254        H  0.29355813  0.32177850  0.65434792     0.10800
C255        C  0.01442086  0.32715358  0.96254056    -0.03000
C256        C  0.31460095  0.96597022  0.96924517    -0.08700
C257        C  0.31378181  0.96559249  0.98272049    -0.16400
C258        C  0.01442349  0.99066888  0.98970759     0.25700
C259        C  0.04934089  0.01608819  0.98310347    -0.18100
C260        C  0.04660856  0.35630109  0.96957948    -0.07000
C261        C  0.01309318  0.99091076  0.00361266    -0.13400
C262        C  0.01110000  0.99099311  0.01522844    -0.13200
C263        C  0.00798140  0.99078223  0.02909571     0.25600
C264        C  0.01945776  0.96911911  0.03662467    -0.18600
C265        C  0.01642122  0.30342950  0.04997266    -0.07000
C266        C  0.00019646  0.32324663  0.05621717    -0.03100
C267        C  0.32319235  0.01154399  0.04852813    -0.08400
C268        C  0.32650018  0.01197576  0.03509440    -0.16100
H269        H  0.28768831  0.94664804  0.96414339     0.12100
H270        H  0.28649538  0.94594160  0.98769301     0.11400
H271        H  0.07586235  0.03570940  0.98837508     0.11300
H272        H  0.07226154  0.37960958  0.96473636     0.11800
H273        H  0.03094402  0.95254859  0.03211807     0.11900
H274        H  0.02700444  0.28747291  0.05540468     0.11900
H275        H  0.31164816  0.02826880  0.05282758     0.12000
H276        H  0.31749799  0.02888317  0.02938791     0.10800
N277        N  0.07303756  0.40890472  0.89351886    -0.26900
N278        N  0.04858270  0.40248835  0.88394843    -0.34800
C279        C  0.06912849  0.42497339  0.87381180     0.01400
C280        C  0.10869408  0.44542568  0.87694687     0.07400
C281        C  0.10982011  0.43496879  0.88961993    -0.05700
H282        H  0.05608333  0.42562690  0.86475358     0.08100
H283        H  0.13567031  0.44498631  0.89551277     0.09300
Cu284      Cu  0.32343087  0.35742745  0.88397941     0.44200
Cu285      Cu  0.05589759  0.38124363  0.91134907     0.42000
Cu286      Cu  0.30125781  0.62299423  0.91045264     0.43900
N287        N  0.27865568  0.63105969  0.88324353    -0.34300
N288        N  0.27276118  0.60623708  0.89273754    -0.28600
C289        C  0.24617152  0.56947765  0.88895510    -0.04700
C290        C  0.23484716  0.57093377  0.87643338     0.07600
C291        C  0.25540316  0.61076732  0.87327597     0.01400
H292        H  0.23627504  0.54337176  0.89482787     0.09000
H293        H  0.25422405  0.62414334  0.86432030     0.08100
N294        N  0.33125000  0.64902538  0.92743338    -0.35800
N295        N  0.02984372  0.34837329  0.92787957    -0.27900
C296        C  0.04188340  0.35776546  0.94013165    -0.03200
C297        C  0.01512611  0.66434028  0.94794049     0.05400
C298        C  0.32092552  0.63612550  0.93962796     0.03500
H299        H  0.06821819  0.38473298  0.94290976     0.08600
H300        H  0.29479742  0.60854498  0.94218533     0.07500
N301        N  0.09565354  0.38135165  0.79186879    -0.26900
N302        N  0.08941513  0.35675217  0.80147067    -0.34800
C303        C  0.11256612  0.37710319  0.81142694     0.01400
C304        C  0.13342150  0.41678879  0.80816842     0.07400
C305        C  0.12243984  0.41812128  0.79558490    -0.05700
H306        H  0.11351377  0.36383011  0.82043483     0.08100
H307        H  0.13270956  0.44412473  0.78962696     0.09300
Cu308      Cu  0.04373222  0.63264987  0.80135649     0.44200
Cu309      Cu  0.06738855  0.36422982  0.77412459     0.42000
Cu310      Cu  0.31154701  0.60819438  0.77372498     0.43900
N311        N  0.31943854  0.58614442  0.80097484    -0.34300
N312        N  0.29501566  0.57954950  0.79137717    -0.28600
C313        C  0.25842005  0.55253037  0.79513164    -0.04700
C314        C  0.25967336  0.54172569  0.80773795     0.07600
C315        C  0.29911071  0.56280898  0.81097452     0.01400
H316        H  0.23256633  0.54236818  0.78922941     0.09000
H317        H  0.31213558  0.56233105  0.82005819     0.08100
N318        N  0.33752003  0.64030414  0.75709274    -0.35800
N319        N  0.03645962  0.33800712  0.75730196    -0.27900
C320        C  0.04569433  0.35135262  0.74510767    -0.03200
C321        C  0.01884763  0.66001544  0.73676778     0.05400
C322        C  0.32424017  0.63148821  0.74494068     0.03500
H323        H  0.07139492  0.37919082  0.74247154     0.08600
H324        H  0.29678489  0.60553340  0.74225719     0.07500
N325        N  0.28071387  0.65817211  0.45800964    -0.26900
N326        N  0.30302283  0.66955400  0.46837183    -0.34800
C327        C  0.28347789  0.67368175  0.47816027     0.01400
C328        C  0.24619795  0.66327547  0.47402365     0.07400
C329        C  0.24578619  0.65400852  0.46106898    -0.05700
H330        H  0.29630962  0.68509006  0.48748668     0.08100
H331        H  0.22237248  0.64615001  0.45424879     0.09300
Cu332      Cu  0.02611587  0.67981818  0.46880928     0.44200
Cu333      Cu  0.30261050  0.65451249  0.44006944     0.42000
Cu334      Cu  0.07424698  0.68365017  0.43929703     0.43900
N335        N  0.08114285  0.68655622  0.46805808    -0.34300
N336        N  0.10016786  0.69007662  0.45727178    -0.28600
C337        C  0.13487537  0.69371804  0.46019926    -0.04700
C338        C  0.13785177  0.69212256  0.47354434     0.07600
C339        C  0.10248281  0.68665161  0.47806564     0.01400
H340        H  0.15558153  0.69571831  0.45305809     0.09000
H341        H  0.09160726  0.68074924  0.48784425     0.08100
N342        N  0.03891750  0.67145783  0.42306764    -0.35800
N343        N  0.33471184  0.66060214  0.42331949    -0.27900
C344        C  0.32144973  0.65561643  0.41113016    -0.03200
C345        C  0.01862996  0.66370972  0.40274210     0.05400
C346        C  0.05033184  0.67360411  0.41074019     0.03500
H347        H  0.29183533  0.64741606  0.40859264     0.08600
H348        H  0.07971376  0.68178048  0.40786236     0.07500
N349        N  0.09851003  0.68956639  0.55951405    -0.26900
N350        N  0.07978659  0.68659446  0.54872208    -0.34800
C351        C  0.10153468  0.68758884  0.53868804     0.01400
C352        C  0.13688825  0.69307259  0.54321964     0.07400
C353        C  0.13344508  0.69383348  0.55658026    -0.05700
H354        H  0.09096081  0.68230087  0.52889456     0.08100
H355        H  0.15394409  0.69560510  0.56375193     0.09300
Cu356      Cu  0.02509098  0.68028909  0.54816887     0.44200
Cu357      Cu  0.07219627  0.68165040  0.57755615     0.42000
Cu358      Cu  0.30306233  0.65906429  0.57746149     0.43900
N359        N  0.30335404  0.67298157  0.54906965    -0.34300
N360        N  0.28163097  0.66316498  0.55958603    -0.28600
C361        C  0.24687300  0.65934662  0.55658185    -0.04700
C362        C  0.24681116  0.66712148  0.54349462     0.07600
C363        C  0.28367990  0.67659075  0.53922665     0.01400
H364        H  0.22372449  0.65214655  0.56347624     0.09000
H365        H  0.29602692  0.68649702  0.52971414     0.08100
N366        N  0.33402450  0.66101770  0.59391233    -0.35800
N367        N  0.03742450  0.66926478  0.59401201    -0.27900
C368        C  0.04823125  0.66906049  0.60628722    -0.03200
C369        C  0.01693344  0.66049059  0.61437794     0.05400
C370        C  0.32068224  0.65551918  0.60609218     0.03500
H371        H  0.07713439  0.67550650  0.60906644     0.08600
H372        H  0.29154989  0.64886461  0.60865066     0.07500
N373        N  0.00048423  0.59268359  0.12592070    -0.26900
N374        N  0.98977948  0.60492799  0.13598565    -0.34800
C375        C  0.98013544  0.57919439  0.14571960     0.01400
C376        C  0.98746799  0.54999040  0.14200712     0.07400
C377        C  0.99988774  0.55953462  0.12921638    -0.05700
H378        H  0.96718199  0.58124459  0.15459285     0.08100
H379        H  0.00690132  0.54313301  0.12259139     0.09300
Cu380      Cu  0.99054328  0.65680028  0.13598783     0.44200
Cu381      Cu  0.00761290  0.61895618  0.10789965     0.42000
Cu382      Cu  0.97542735  0.35946146  0.10640163     0.43900
N383        N  0.98088322  0.36994424  0.13484311    -0.34300
N384        N  0.97233372  0.38185063  0.12413995    -0.28600
C385        C  0.96495786  0.41050239  0.12707926    -0.04700
C386        C  0.96921199  0.41669674  0.14032257     0.07600
C387        C  0.98099536  0.39143523  0.14470908     0.01400
H388        H  0.95727183  0.42571495  0.12009848     0.09000
H389        H  0.98907592  0.38845238  0.15439687     0.08100
N390        N  0.98834651  0.33591858  0.09060123    -0.35800
N391        N  0.00084691  0.64358613  0.09100778    -0.27900
C392        C  0.00641120  0.63522040  0.07893921    -0.03200
C393        C  0.99821924  0.65692699  0.07033931     0.05400
C394        C  0.98633308  0.34423949  0.07815706     0.03500
H395        H  0.01549432  0.61452982  0.07665085     0.08600
H396        H  0.97761604  0.36460384  0.07497870     0.07500
N397        N  0.95513678  0.56416676  0.22716978    -0.26900
N398        N  0.93954717  0.57260931  0.21736731    -0.34800
C399        C  0.93532829  0.54913702  0.20742973     0.01400
C400        C  0.94941893  0.52504156  0.21108898     0.07400
C401        C  0.96115917  0.53501928  0.22374606    -0.05700
H402        H  0.92353865  0.55007802  0.19814044     0.08100
H403        H  0.97424315  0.52283484  0.22989692     0.09300
Cu404      Cu  0.92904498  0.61870456  0.21749729     0.44200
Cu405      Cu  0.97002932  0.59471236  0.24439971     0.42000
Cu406      Cu  0.97555548  0.35666068  0.24326887     0.43900
N407        N  0.93373604  0.33990529  0.21767729    -0.34300
N408        N  0.95451022  0.36735142  0.22626252    -0.28600
C409        C  0.95872627  0.40157830  0.22218039    -0.04700
C410        C  0.93962905  0.39577502  0.21043392     0.07600
C411        C  0.92282220  0.35554496  0.20822317     0.01400
H412        H  0.97555650  0.42918268  0.22724843     0.09000
H413        H  0.90343836  0.33797215  0.20059459     0.09600
N414        N  0.98667600  0.66538461  0.26009663    -0.35800
N415        N  0.98394710  0.63072500  0.26037554    -0.27900
C416        C  0.99009212  0.62289090  0.27246805    -0.03200
C417        C  0.99695973  0.65405461  0.28032040     0.05400
C418        C  0.99601872  0.35062231  0.27174988     0.03500
H419        H  0.98847196  0.59583674  0.27534929     0.08600
H420        H  0.99704039  0.37756068  0.27427373     0.07500
C421        C  0.97959810  0.51391694  0.14937600    -0.10500
C422        C  0.97474483  0.48165789  0.14226443    -0.04300
C423        C  0.96539845  0.44601121  0.14812397    -0.10500
C424        C  0.95614104  0.44059951  0.16144986     0.10500
C425        C  0.96227118  0.47287533  0.16899121    -0.02300
C426        C  0.97605557  0.51021811  0.16306290     0.10300
C427        C  0.98762842  0.54274174  0.17113391    -0.12300
C428        C  0.97927550  0.53779079  0.18424629    -0.12300
C429        C  0.96123247  0.50028845  0.19003270     0.10300
C430        C  0.95554126  0.46800267  0.18257345    -0.02300
C431        C  0.94114949  0.40383945  0.16750179    -0.12400
C432        C  0.93818265  0.39999301  0.18079532    -0.12400
C433        C  0.94456281  0.43139663  0.18868796     0.10500
C434        C  0.94066293  0.42801798  0.20240002    -0.10500
C435        C  0.94206238  0.45923772  0.20921991    -0.04300
C436        C  0.95113311  0.49471379  0.20324235    -0.10500
H437        H  0.00478093  0.57258942  0.16759519     0.07700
H438        H  0.98882632  0.56402845  0.18990472     0.07700
H439        H  0.93131411  0.37721175  0.16206351     0.07900
H440        H  0.93003811  0.37171263  0.18441477     0.07900
H441        H  0.97934150  0.48443848  0.13198356     0.04400
H442        H  0.93613706  0.45592352  0.21947372     0.04400
C443        C  0.20583102  0.53649937  0.86864905    -0.10500
C444        C  0.17233822  0.50749916  0.87511142    -0.04300
C445        C  0.14305952  0.47364814  0.86895565    -0.10500
C446        C  0.14773866  0.46785313  0.85574027     0.10500
C447        C  0.18156395  0.49673476  0.84893402    -0.02300
C448        C  0.21069334  0.53114708  0.85539689     0.10300
C449        C  0.24404229  0.55869026  0.84844075    -0.12300
C450        C  0.24790561  0.55394860  0.83540348    -0.12300
C451        C  0.22050134  0.51961820  0.82887758     0.10300
C452        C  0.18665087  0.49079920  0.83567581    -0.02300
C453        C  0.12007908  0.43377702  0.84916278    -0.12400
C454        C  0.12386481  0.42919423  0.83610618    -0.12400
C455        C  0.15743999  0.45650875  0.82919111     0.10500
C456        C  0.16243462  0.45109064  0.81595502    -0.10500
C457        C  0.19616751  0.47975868  0.80954089    -0.04300
C458        C  0.22536611  0.51357513  0.81570547    -0.10500
H459        H  0.26796268  0.58438606  0.85288437     0.07700
H460        H  0.27271855  0.57811216  0.83060383     0.07700
H461        H  0.09507272  0.40975071  0.85393610     0.07900
H462        H  0.09971009  0.40378989  0.83162272     0.07900
H463        H  0.16844771  0.51192128  0.88516304     0.04400
H464        H  0.20021773  0.47520258  0.79951381     0.04400
C465        C  0.16839371  0.68921234  0.48111456    -0.10500
C466        C  0.19218922  0.67793039  0.47468486    -0.04300
C467        C  0.21643968  0.66785332  0.48139464    -0.10500
C468        C  0.21359291  0.66506581  0.49502911     0.10500
C469        C  0.19287318  0.67988296  0.50169057    -0.02300
C470        C  0.17229068  0.69429102  0.49470000     0.10300
C471        C  0.15745017  0.71438902  0.50152576    -0.12300
C472        C  0.15700643  0.71445511  0.51495293    -0.12300
C473        C  0.17175321  0.69476623  0.52210440     0.10300
C474        C  0.19271193  0.68025759  0.51540873    -0.02300
C475        C  0.22970934  0.64671322  0.50220157    -0.12400
C476        C  0.22962863  0.64717939  0.51558772    -0.12400
C477        C  0.21351595  0.66609606  0.52237940     0.10500
C478        C  0.21657996  0.67024686  0.53595176    -0.10500
C479        C  0.19116014  0.34646225  0.54238184    -0.04300
C480        C  0.16775997  0.69046675  0.53573745    -0.10500
H481        H  0.14703910  0.73124692  0.49655969     0.07700
H482        H  0.14625396  0.73130962  0.51965641     0.07700
H483        H  0.24157657  0.63077312  0.49754905     0.07900
H484        H  0.24136130  0.63149692  0.52055530     0.07900
H485        H  0.19201331  0.67703008  0.46429985     0.04400
H486        H  0.19119425  0.34636142  0.55276652     0.04400
C487        C  0.00308002  0.65706043  0.29453298    -0.03000
C488        C  0.01533496  0.30332147  0.30093351    -0.08700
C489        C  0.01619385  0.63323606  0.31453360    -0.16400
C490        C  0.01134790  0.66037310  0.32163503     0.25700
C491        C  0.33626981  0.68620443  0.31516549    -0.18100
C492        C  0.33226036  0.68465837  0.30174124    -0.07000
C493        C  0.34737869  0.66106363  0.33554709    -0.13400
C494        C  0.01547295  0.66147684  0.34719588    -0.13200
C495        C  0.01633270  0.66179186  0.36113765     0.25600
C496        C  0.31455002  0.64348264  0.36820159    -0.18600
C497        C  0.31525983  0.64406726  0.38169152    -0.07000
C498        C  0.01782986  0.66287287  0.38838309    -0.03100
C499        C  0.05078473  0.33947460  0.38097203    -0.08400
C500        C  0.05219455  0.68053036  0.36770015    -0.16100
H501        H  0.02014201  0.28246427  0.29582775     0.12100
H502        H  0.02519349  0.28478117  0.31932168     0.11400
H503        H  0.33240780  0.70735237  0.32051515     0.11300
H504        H  0.32515516  0.70463493  0.29707847     0.11800
H505        H  0.28655793  0.62877034  0.36327838     0.11900
H506        H  0.28762339  0.62948460  0.38684560     0.11900
H507        H  0.07757325  0.34554689  0.38566770     0.12000
H508        H  0.07591567  0.34559255  0.36214905     0.10800
C509        C  0.01752138  0.66136149  0.72249832    -0.03000
C510        C  0.31491120  0.64012653  0.71592686    -0.08700
C511        C  0.31384396  0.64026113  0.70245866    -0.16400
C512        C  0.01530124  0.66144750  0.69535553     0.25700
C513        C  0.04704590  0.35568828  0.70204605    -0.18100
C514        C  0.04745779  0.35549469  0.71552958    -0.07000
C515        C  0.01441176  0.66033525  0.68146434    -0.13400
C516        C  0.01421433  0.65928298  0.66983929    -0.13200
C517        C  0.01446414  0.65841523  0.65594420     0.25600
C518        C  0.04578581  0.32413759  0.64901122    -0.18600
C519        C  0.04586330  0.32468466  0.63552657    -0.07000
C520        C  0.01580312  0.65889174  0.62873349    -0.03100
C521        C  0.31653375  0.65472567  0.63551569    -0.08400
C522        C  0.31593706  0.65454043  0.64898525    -0.16100
H523        H  0.28756551  0.62340110  0.72117217     0.12100
H524        H  0.28588981  0.62350773  0.69758821     0.11400
H525        H  0.07133708  0.37968434  0.69685504     0.11300
H526        H  0.07230275  0.37950022  0.72038322     0.11800
H527        H  0.06983385  0.32465087  0.65407862     0.11900
H528        H  0.07004483  0.32539476  0.63052464     0.11900
H529        H  0.29152694  0.65210092  0.63048718     0.12000
H530        H  0.29067971  0.65168846  0.65397195     0.10800
C531        C  0.01493904  0.66361242  0.96230788    -0.03000
C532        C  0.31523710  0.29741599  0.96941169    -0.08700
C533        C  0.31479145  0.29708728  0.98288326    -0.16400
C534        C  0.01344753  0.32633769  0.98974830     0.25700
C535        C  0.04607649  0.35588029  0.98306019    -0.18100
C536        C  0.04540930  0.69468755  0.96936664    -0.07000
C537        C  0.01230324  0.32633957  0.00364354    -0.13400
C538        C  0.01018947  0.32586792  0.01525477    -0.13200
C539        C  0.00676963  0.32493461  0.02910839     0.25600
C540        C  0.01967893  0.30431065  0.03654447    -0.18600
C541        C  0.02068485  0.64155600  0.04971048    -0.07000
C542        C  0.00101846  0.65776459  0.05604139    -0.03100
C543        C  0.31837334  0.34166717  0.04860497    -0.08400
C544        C  0.32162707  0.34248222  0.03517446    -0.16100
H545        H  0.28983623  0.27452154  0.96443439     0.12100
H546        H  0.28930832  0.27409196  0.98793654     0.11400
H547        H  0.07104186  0.37875494  0.98826074     0.11300
H548        H  0.06981105  0.71948844  0.96453878     0.11800
H549        H  0.03239845  0.28897651  0.03196567     0.11900
H550        H  0.03406168  0.62815478  0.05510453     0.11900
H551        H  0.30379156  0.35543030  0.05295590     0.12000
H552        H  0.30970733  0.35686895  0.02950647     0.10800
N553        N  0.07266662  0.74313653  0.89307598    -0.26900
N554        N  0.04821029  0.73627783  0.88346804    -0.34800
C555        C  0.06862623  0.75924103  0.87340054     0.01400
C556        C  0.10816224  0.78024466  0.87660067     0.07400
C557        C  0.10932144  0.76973468  0.88925301    -0.05700
H558        H  0.05550926  0.75974391  0.86434101     0.08100
H559        H  0.13513420  0.78001565  0.89518503     0.09300
Cu560      Cu  0.32367542  0.68979275  0.88328993     0.44200
Cu561      Cu  0.05606246  0.71600341  0.91094182     0.42000
Cu562      Cu  0.30215079  0.95373428  0.91067892     0.43900
N563        N  0.27944304  0.96351214  0.88372750    -0.34300
N564        N  0.27360418  0.93796849  0.89296337    -0.28600
C565        C  0.24705779  0.90151361  0.88890758    -0.04700
C566        C  0.23578108  0.90399537  0.87646672     0.07600
C567        C  0.25636169  0.94402151  0.87363741     0.01400
H568        H  0.23698492  0.87495372  0.89455415     0.09000
H569        H  0.25514259  0.95807470  0.86484639     0.08100
N570        N  0.33261674  0.97906237  0.92764548    -0.35800
N571        N  0.03056470  0.68386545  0.92758328    -0.27900
C572        C  0.04196678  0.69420425  0.93984398    -0.03200
C573        C  0.01661946  0.99299114  0.94817129     0.05400
C574        C  0.32215875  0.96556253  0.93977965     0.03500
H575        H  0.06752731  0.72189461  0.94258585     0.08600
H576        H  0.29585247  0.93803645  0.94227458     0.07500
N577        N  0.09775957  0.71510988  0.79158470    -0.26900
N578        N  0.08974433  0.69068658  0.80137740    -0.34800
C579        C  0.11208149  0.71103351  0.81147927     0.01400
C580        C  0.13422444  0.75059525  0.80807626     0.07400
C581        C  0.12479665  0.75177133  0.79529062    -0.05700
H582        H  0.11171786  0.69782621  0.82065008     0.08100
H583        H  0.13631118  0.77760025  0.78917035     0.09300
Cu584      Cu  0.04514149  0.96600333  0.80144340     0.44200
Cu585      Cu  0.07111810  0.69782905  0.77368818     0.42000
Cu586      Cu  0.31384878  0.94005264  0.77382749     0.43900
N587        N  0.32137090  0.91865827  0.80114132    -0.34300
N588        N  0.29715018  0.91147135  0.79144093    -0.28600
C589        C  0.26054397  0.88446729  0.79515119    -0.04700
C590        C  0.26153185  0.87425897  0.80784920     0.07600
C591        C  0.30089437  0.89569216  0.81119504     0.01400
H592        H  0.23481477  0.87410640  0.78917182     0.09000
H593        H  0.31373503  0.89581901  0.82038240     0.08100
N594        N  0.33859965  0.97289971  0.75727147    -0.35800
N595        N  0.03899580  0.67307920  0.75703545    -0.27900
C596        C  0.04898084  0.68588738  0.74482719    -0.03200
C597        C  0.01896131  0.99284116  0.73695522     0.05400
C598        C  0.32572594  0.96321481  0.74511041     0.03500
H599        H  0.07624626  0.71208447  0.74206466     0.08600
H600        H  0.29950670  0.93598675  0.74240758     0.07500
N601        N  0.27978642  0.99364021  0.45791350    -0.26900
N602        N  0.30168615  0.00385882  0.46835811    -0.34800
C603        C  0.28195145  0.00730965  0.47822495     0.01400
C604        C  0.24490476  0.99758167  0.47404276     0.07400
C605        C  0.24490833  0.98951291  0.46098829    -0.05700
H606        H  0.29454380  0.01780205  0.48764012     0.08100
H607        H  0.22177741  0.98236458  0.45412077     0.09300
Cu608      Cu  0.02430838  0.01311764  0.46883260     0.44200
Cu609      Cu  0.30187308  0.99083602  0.43991394     0.42000
Cu610      Cu  0.07249645  0.01701200  0.43934006     0.43900
N611        N  0.07894513  0.01915828  0.46810818    -0.34300
N612        N  0.09809512  0.02288671  0.45733537    -0.28600
C613        C  0.13278896  0.02655840  0.46028654    -0.04700
C614        C  0.13560124  0.02477083  0.47363290     0.07600
C615        C  0.10014660  0.01909174  0.47812929     0.01400
H616        H  0.15365987  0.02886675  0.45315750     0.09000
H617        H  0.08921219  0.01315705  0.48790126     0.08100
N618        N  0.03758142  0.00545838  0.42304755    -0.35800
N619        N  0.33380358  0.99607049  0.42321031    -0.27900
C620        C  0.32083305  0.99153627  0.41099548    -0.03200
C621        C  0.01771861  0.99822897  0.40267254     0.05400
C622        C  0.04894904  0.00687578  0.41075444     0.03500
H623        H  0.29144283  0.98401265  0.40842815     0.08600
H624        H  0.07817841  0.01432307  0.40796555     0.07500
N625        N  0.09723888  0.02382974  0.55958992    -0.26900
N626        N  0.07835044  0.02036897  0.54879490    -0.34800
C627        C  0.09988810  0.02083319  0.53878338     0.01400
C628        C  0.13531861  0.02654368  0.54331650     0.07400
C629        C  0.13210518  0.02787956  0.55666880    -0.05700
H630        H  0.08915612  0.01513999  0.52900822     0.08100
H631        H  0.15277196  0.03002189  0.56383976     0.09300
Cu632      Cu  0.02378852  0.01431529  0.54820356     0.44200
Cu633      Cu  0.07110619  0.01703584  0.57761742     0.42000
Cu634      Cu  0.30139320  0.99256394  0.57752931     0.43900
N635        N  0.30195399  0.00674492  0.54912057    -0.34300
N636        N  0.28012085  0.99664270  0.55961956    -0.28600
C637        C  0.24533008  0.99272827  0.55661049    -0.04700
C638        C  0.24536020  0.00074518  0.54354424     0.07600
C639        C  0.28229778  0.01042623  0.53928560     0.01400
H640        H  0.22210915  0.98534884  0.56349286     0.09000
H641        H  0.29468931  0.02052190  0.52978708     0.08100
N642        N  0.33265933  0.99551908  0.59402445    -0.35800
N643        N  0.03635586  0.00464982  0.59409120    -0.27900
C644        C  0.04732648  0.00457255  0.60634829    -0.03200
C645        C  0.01582426  0.99504004  0.61447170     0.05400
C646        C  0.31928469  0.98953703  0.60621784     0.03500
H647        H  0.07634444  0.01126884  0.60907463     0.08600
H648        H  0.28994167  0.98216312  0.60880804     0.07500
N649        N  0.00295364  0.92762162  0.12610996    -0.26900
N650        N  0.99167273  0.93927689  0.13617676    -0.34800
C651        C  0.98242789  0.91347842  0.14586530     0.01400
C652        C  0.99075818  0.88497605  0.14212397     0.07400
C653        C  0.00319074  0.89487037  0.12935120    -0.05700
H654        H  0.96922728  0.91507631  0.15474491     0.08100
H655        H  0.01088641  0.87903160  0.12271421     0.09300
Cu656      Cu  0.99174245  0.99082881  0.13620373     0.44200
Cu657      Cu  0.00970191  0.95416025  0.10820062     0.42000
Cu658      Cu  0.97764686  0.69375932  0.10634109     0.43900
N659        N  0.98733519  0.70638720  0.13464012    -0.34300
N660        N  0.97753601  0.71776277  0.12408410    -0.28600
C661        C  0.97052661  0.74655275  0.12717181    -0.04700
C662        C  0.97625261  0.75332260  0.14036175     0.07600
C663        C  0.98863901  0.72836396  0.14454230     0.01400
H664        H  0.96165903  0.76116640  0.12035119     0.09000
H665        H  0.99745743  0.72557749  0.15413927     0.08100
N666        N  0.98934880  0.66949698  0.09047046    -0.35800
N667        N  0.00161553  0.97761526  0.09129660    -0.27900
C668        C  0.00760689  0.96917315  0.07930663    -0.03200
C669        C  0.99845244  0.98974273  0.07053874     0.05400
C670        C  0.98750619  0.67829173  0.07806845     0.03500
H671        H  0.01788966  0.94933520  0.07722279     0.08600
H672        H  0.97949897  0.69927868  0.07497528     0.07500
N673        N  0.95781218  0.89879127  0.22720738    -0.26900
N674        N  0.94207516  0.90699280  0.21738742    -0.34800
C675        C  0.93819102  0.88355896  0.20746395     0.01400
C676        C  0.95273518  0.85983426  0.21114933     0.07400
C677        C  0.96432065  0.86994561  0.22380894    -0.05700
H678        H  0.92642142  0.88434880  0.19815493     0.08100
H679        H  0.97774723  0.85814310  0.22997187     0.09300
Cu680      Cu  0.93113856  0.95297691  0.21751054     0.44200
Cu681      Cu  0.97265124  0.92945806  0.24441135     0.42000
Cu682      Cu  0.97667472  0.68871573  0.24344389     0.43900
N683        N  0.93621106  0.67436490  0.21768982    -0.34300
N684        N  0.95754339  0.70132814  0.22634637    -0.28600
C685        C  0.96325863  0.73622182  0.22230786    -0.04700
C686        C  0.94458189  0.73124745  0.21052620     0.07600
C687        C  0.92643906  0.69098903  0.20823820     0.01400
H688        H  0.98059444  0.76360016  0.22745265     0.09000
H689        H  0.90705476  0.67422915  0.20045959     0.09600
N690        N  0.98896948  0.00000050  0.26009102    -0.35800
N691        N  0.98728138  0.96583427  0.26032138    -0.27900
C692        C  0.99455261  0.95862013  0.27235166    -0.03200
C693        C  0.00095987  0.98964862  0.28019685     0.05400
C694        C  0.99454408  0.68047802  0.27206872     0.03500
H695        H  0.99369486  0.93192973  0.27522676     0.08600
H696        H  0.99769681  0.70841529  0.27457236     0.07500
C697        C  0.98413549  0.84935818  0.14949780    -0.10500
C698        C  0.98042759  0.81755354  0.14240903    -0.04300
C699        C  0.97212757  0.78223782  0.14827780    -0.10500
C700        C  0.96295680  0.77664934  0.16162125     0.10500
C701        C  0.96785148  0.80854856  0.16912685    -0.02300
C702        C  0.98061205  0.84564759  0.16317518     0.10300
C703        C  0.99128397  0.87803186  0.17121696    -0.12300
C704        C  0.98277280  0.87297848  0.18431173    -0.12300
C705        C  0.96548520  0.83556564  0.19011797     0.10300
C706        C  0.96087689  0.80360410  0.18269694    -0.02300
C707        C  0.94923552  0.74014632  0.16773434    -0.12400
C708        C  0.94613794  0.73640807  0.18102920    -0.12400
C709        C  0.95081854  0.76732238  0.18884830     0.10500
C710        C  0.94637522  0.76383888  0.20253626    -0.10500
C711        C  0.94705135  0.79471434  0.20933701    -0.04300
C712        C  0.95529384  0.82989610  0.20332522    -0.10500
H713        H  0.00790841  0.90790908  0.16767152     0.07700
H714        H  0.99166579  0.89912844  0.18994263     0.07700
H715        H  0.94046348  0.71364630  0.16236169     0.07900
H716        H  0.93955723  0.70846493  0.18477869     0.07900
H717        H  0.98499725  0.82042945  0.13212594     0.04400
H718        H  0.94097894  0.79125642  0.21958199     0.04400
C719        C  0.20623438  0.87036956  0.86853918    -0.10500
C720        C  0.17225601  0.84183663  0.87489365    -0.04300
C721        C  0.14266027  0.80839242  0.86865168    -0.10500
C722        C  0.14750800  0.80256458  0.85545846     0.10500
C723        C  0.18180023  0.83104076  0.84875409    -0.02300
C724        C  0.21115425  0.86515323  0.85528350     0.10300
C725        C  0.24475169  0.89251741  0.84839159    -0.12300
C726        C  0.24898390  0.88750119  0.83539473    -0.12300
C727        C  0.22157571  0.85316707  0.82886244     0.10300
C728        C  0.18718973  0.82486805  0.83555107    -0.02300
C729        C  0.11959230  0.76880985  0.84880484    -0.12400
C730        C  0.12358708  0.76420479  0.83578090    -0.12400
C731        C  0.15776839  0.79082767  0.82901309     0.10500
C732        C  0.16323489  0.78487468  0.81588126    -0.10500
C733        C  0.19761210  0.81286457  0.80960351    -0.04300
C734        C  0.22688296  0.84662107  0.81578000    -0.10500
H735        H  0.26852165  0.91829444  0.85286319     0.07700
H736        H  0.27406087  0.91145094  0.83062928     0.07700
H737        H  0.09426546  0.74493083  0.85347295     0.07900
H738        H  0.09916334  0.73924724  0.83122105     0.07900
H739        H  0.16837940  0.84623913  0.88494910     0.04400
H740        H  0.20206976  0.80785446  0.79966486     0.04400
C741        C  0.16628748  0.02220701  0.48121966    -0.10500
C742        C  0.19042349  0.01142403  0.47478298    -0.04300
C743        C  0.21493674  0.00166908  0.48146964    -0.10500
C744        C  0.21200498  0.99867245  0.49510240     0.10500
C745        C  0.19107547  0.01322919  0.50177812    -0.02300
C746        C  0.17016996  0.02729707  0.49479986     0.10300
C747        C  0.15511510  0.04719194  0.50162241    -0.12300
C748        C  0.15497887  0.04753248  0.51504569    -0.12300
C749        C  0.17001735  0.02811099  0.52219792     0.10300
C750        C  0.19102685  0.01368405  0.51549392    -0.02300
C751        C  0.22818947  0.98036155  0.50225978    -0.12400
C752        C  0.22816537  0.98084099  0.51564849    -0.12400
C753        C  0.21199340  0.99968747  0.52245167     0.10500
C754        C  0.21511991  0.00388637  0.53602240    -0.10500
C755        C  0.19211071  0.68035972  0.54240641    -0.04300
C756        C  0.16619062  0.02395451  0.53583517    -0.10500
H757        H  0.14441300  0.06379350  0.49665602     0.07700
H758        H  0.14419578  0.06437051  0.51974109     0.07700
H759        H  0.24003154  0.96441941  0.49759530     0.07900
H760        H  0.24001055  0.96524968  0.52060851     0.07900
H761        H  0.19027396  0.01065502  0.46440128     0.04400
H762        H  0.19228219  0.68043775  0.55278930     0.04400
C763        C  0.00689497  0.99271335  0.29440433    -0.03000
C764        C  0.01209504  0.63156013  0.30111335    -0.08700
C765        C  0.02005246  0.96920031  0.31445238    -0.16400
C766        C  0.01352395  0.99525868  0.32153684     0.25700
C767        C  0.33772529  0.02053571  0.31503079    -0.18100
C768        C  0.33456142  0.01939970  0.30159032    -0.07000
C769        C  0.34860511  0.99550160  0.33544776    -0.13400
C770        C  0.01597884  0.99566527  0.34710884    -0.13200
C771        C  0.01633315  0.99602739  0.36104491     0.25600
C772        C  0.31797252  0.99309049  0.36789698    -0.18600
C773        C  0.31832135  0.99367019  0.38138541    -0.07000
C774        C  0.01713799  0.99724919  0.38829789    -0.03100
C775        C  0.05297416  0.68102538  0.38119099    -0.08400
C776        C  0.04839349  0.99946541  0.36779863    -0.16100
H777        H  0.01593843  0.61018628  0.29592974     0.12100
H778        H  0.02279485  0.61308642  0.31937964     0.11400
H779        H  0.33252717  0.04081320  0.32037212     0.11300
H780        H  0.32668798  0.03877002  0.29691002     0.11800
H781        H  0.29295704  0.99045080  0.36281629     0.11900
H782        H  0.29344813  0.99160849  0.38634719     0.11900
H783        H  0.08117599  0.69606015  0.38594584     0.12000
H784        H  0.07961312  0.69488544  0.36238935     0.10800
C785        C  0.01744209  0.99383500  0.72267981    -0.03000
C786        C  0.31494535  0.97128398  0.71615578    -0.08700
C787        C  0.31366695  0.97127208  0.70268677    -0.16400
C788        C  0.01481141  0.99356256  0.69552284     0.25700
C789        C  0.05114404  0.68312107  0.70180990    -0.18100
C790        C  0.05227308  0.68320226  0.71527459    -0.07000
C791        C  0.01366433  0.99250095  0.68161590    -0.13400
C792        C  0.01315427  0.99152368  0.66997938    -0.13200
C793        C  0.01332844  0.99093751  0.65606479     0.25600
C794        C  0.04682972  0.66203015  0.64933356    -0.18600
C795        C  0.04753363  0.66225988  0.63584946    -0.07000
C796        C  0.01467043  0.99259848  0.62883055    -0.03100
C797        C  0.31344130  0.98258097  0.63567607    -0.08400
C798        C  0.31284601  0.98182150  0.64916011    -0.16100
H799        H  0.28781835  0.95369538  0.72144604     0.12100
H800        H  0.28577476  0.95356894  0.69786022     0.11400
H801        H  0.07830334  0.69963473  0.69643089     0.11300
H802        H  0.08047113  0.69967067  0.71998920     0.11800
H803        H  0.07168875  0.66496029  0.65460217     0.11900
H804        H  0.07305385  0.66524836  0.63105710     0.11900
H805        H  0.28681197  0.97564570  0.63068113     0.12000
H806        H  0.28603980  0.97446244  0.65419587     0.10800
C807        C  0.01610996  0.99163769  0.96250443    -0.03000
C808        C  0.31697828  0.63233786  0.96915592    -0.08700
C809        C  0.31639978  0.63200750  0.98262974    -0.16400
C810        C  0.01371091  0.66282913  0.98953197     0.25700
C811        C  0.04475159  0.69426837  0.98285165    -0.18100
C812        C  0.05019294  0.01664247  0.96961545    -0.07000
C813        C  0.01254530  0.66258958  0.00343625    -0.13400
C814        C  0.01060192  0.66184697  0.01505741    -0.13200
C815        C  0.00743784  0.66051984  0.02892782     0.25600
C816        C  0.02389649  0.64299348  0.03627173    -0.18600
C817        C  0.01620865  0.96863873  0.05004889    -0.07000
C818        C  0.00142134  0.98990657  0.05621937    -0.03100
C819        C  0.31759277  0.67497287  0.04855544    -0.08400
C820        C  0.32075267  0.67629032  0.03511848    -0.16100
H821        H  0.29271019  0.60812338  0.96416958     0.12100
H822        H  0.29193174  0.60773017  0.98766840     0.11400
H823        H  0.06840165  0.71857318  0.98806229     0.11300
H824        H  0.07758793  0.03661379  0.96478340     0.11800
H825        H  0.03930053  0.63048243  0.03161210     0.11900
H826        H  0.02550303  0.95165533  0.05552539     0.11900
H827        H  0.30177365  0.68725944  0.05303057     0.12000
H828        H  0.30755743  0.68963029  0.02955672     0.10800
N829        N  0.40633592  0.07615645  0.89375350    -0.26900
N830        N  0.38129286  0.06926071  0.88432969    -0.34800
C831        C  0.40093964  0.09253269  0.87422175     0.01400
C832        C  0.44058146  0.11402642  0.87720898     0.07400
C833        C  0.44263527  0.10337231  0.88977900    -0.05700
H834        H  0.38729373  0.09280584  0.86525092     0.08100
H835        H  0.46886675  0.11384787  0.89550907     0.09300
Cu836      Cu  0.65704232  0.02242561  0.88434007     0.44200
Cu837      Cu  0.39086713  0.04737232  0.91145103     0.42000
Cu838      Cu  0.63161649  0.28970961  0.91090000     0.43900
N839        N  0.61053783  0.29921841  0.88368259    -0.34300
N840        N  0.60352841  0.27408383  0.89317889    -0.28600
C841        C  0.57662561  0.23760485  0.88929887    -0.04700
C842        C  0.56622828  0.23952110  0.87670050     0.07600
C843        C  0.58771177  0.27937018  0.87357804     0.01400
H844        H  0.56602628  0.21133277  0.89514364     0.09000
H845        H  0.58754471  0.29300108  0.86455340     0.08100
N846        N  0.66286597  0.31439271  0.92772449    -0.35800
N847        N  0.36560379  0.01368615  0.92792529    -0.27900
C848        C  0.37715229  0.02309455  0.94023258    -0.03200
C849        C  0.34773302  0.32827709  0.94820590     0.05400
C850        C  0.65253409  0.30119342  0.93988582     0.03500
H851        H  0.40270754  0.05054356  0.94317415     0.08600
H852        H  0.62570483  0.27423966  0.94242972     0.07500
N853        N  0.43003730  0.04958191  0.79202296    -0.26900
N854        N  0.42292036  0.02465683  0.80160319    -0.34800
C855        C  0.44527621  0.04462541  0.81174896     0.01400
C856        C  0.46664453  0.08436607  0.80860929     0.07400
C857        C  0.45669189  0.08617077  0.79592687    -0.05700
H858        H  0.44555218  0.03102456  0.82076565     0.08100
H859        H  0.46773663  0.11235421  0.79000410     0.09300
Cu860      Cu  0.37792027  0.29824674  0.80167817     0.44200
Cu861      Cu  0.40313221  0.03315892  0.77406068     0.42000
Cu862      Cu  0.64615276  0.27006639  0.77383218     0.43900
N863        N  0.65402227  0.25112268  0.80150119    -0.34300
N864        N  0.62977925  0.24317483  0.79174611    -0.28600
C865        C  0.59318013  0.21656008  0.79557845    -0.04700
C866        C  0.59417544  0.20734476  0.80839905     0.07600
C867        C  0.63355885  0.22899678  0.81170150     0.01400
H868        H  0.56745287  0.20568323  0.78956440     0.09000
H869        H  0.64650357  0.22967398  0.82091995     0.08100
N870        N  0.67061682  0.30299689  0.75724194    -0.35800
N871        N  0.37188961  0.00727020  0.75726598    -0.27900
C872        C  0.38126535  0.02032781  0.74504439    -0.03200
C873        C  0.35094120  0.32332955  0.73690198     0.05400
C874        C  0.65822188  0.29305795  0.74504623     0.03500
H875        H  0.40735283  0.04770365  0.74227508     0.08600
H876        H  0.63254406  0.26537055  0.74237318     0.07500
N877        N  0.61379063  0.32590935  0.45787316    -0.26900
N878        N  0.63601269  0.33698794  0.46825089    -0.34800
C879        C  0.61646216  0.34097063  0.47806880     0.01400
C880        C  0.57926426  0.33082821  0.47392727     0.07400
C881        C  0.57891469  0.32185616  0.46094077    -0.05700
H882        H  0.62923625  0.35209035  0.48742182     0.08100
H883        H  0.55555633  0.31419711  0.45411493     0.09300
Cu884      Cu  0.35898487  0.34696860  0.46862588     0.44200
Cu885      Cu  0.63584793  0.32223374  0.43996642     0.42000
Cu886      Cu  0.40720727  0.34990590  0.43913579     0.43900
N887        N  0.41377579  0.35318209  0.46793193    -0.34300
N888        N  0.43285751  0.35655902  0.45717143    -0.28600
C889        C  0.46757354  0.36033502  0.46015469    -0.04700
C890        C  0.47049344  0.35891619  0.47350862     0.07600
C891        C  0.43505938  0.35340603  0.47797939     0.01400
H892        H  0.48834161  0.36235194  0.45303759     0.09000
H893        H  0.42412306  0.34764634  0.48775052     0.08100
N894        N  0.37187810  0.33812818  0.42292713    -0.35800
N895        N  0.66788494  0.32805762  0.42322678    -0.27900
C896        C  0.65472749  0.32393387  0.41105418    -0.03200
C897        C  0.35169124  0.33169525  0.40259311     0.05400
C898        C  0.38317332  0.34040676  0.41057612     0.03500
H899        H  0.62524660  0.31635990  0.40861123     0.08600
H900        H  0.41251046  0.34847452  0.40769042     0.07500
N901        N  0.43067085  0.35563464  0.55947628    -0.26900
N902        N  0.41183699  0.35214094  0.54866892    -0.34800
C903        C  0.43362320  0.35303670  0.53866536     0.01400
C904        C  0.46911305  0.35896333  0.54322349     0.07400
C905        C  0.46571107  0.36004417  0.55658040    -0.05700
H906        H  0.42303821  0.34745031  0.52887296     0.08100
H907        H  0.48636862  0.36223353  0.56376482     0.09300
Cu908      Cu  0.35694527  0.34533426  0.54812263     0.44200
Cu909      Cu  0.40407973  0.34840169  0.57744131     0.42000
Cu910      Cu  0.63468888  0.32499750  0.57752159     0.43900
N911        N  0.63533292  0.33831934  0.54904838    -0.34300
N912        N  0.61362671  0.32883538  0.55956277    -0.28600
C913        C  0.57903182  0.32532218  0.55653429    -0.04700
C914        C  0.57904360  0.33299502  0.54343954     0.07600
C915        C  0.61580617  0.34205663  0.53918541     0.01400
H916        H  0.55598058  0.31847310  0.56342974     0.09000
H917        H  0.62825048  0.35188879  0.52968073     0.08100
N918        N  0.66583256  0.32720218  0.59393819    -0.35800
N919        N  0.36928934  0.33560336  0.59392255    -0.27900
C920        C  0.38032491  0.33519039  0.60614445    -0.03200
C921        C  0.34916345  0.32633135  0.61432409     0.05400
C922        C  0.65269368  0.32144950  0.60615792     0.03500
H923        H  0.40932897  0.34175582  0.60883787     0.08600
H924        H  0.62352495  0.31446543  0.60883476     0.07500
N925        N  0.33335367  0.25987698  0.12619224    -0.26900
N926        N  0.32105658  0.27077844  0.13620116    -0.34800
C927        C  0.31248860  0.24516144  0.14590722     0.01400
C928        C  0.32219958  0.21762262  0.14222778     0.07400
C929        C  0.33477871  0.22780045  0.12948876    -0.05700
H930        H  0.29899968  0.24626810  0.15479164     0.08100
H931        H  0.34358396  0.21267791  0.12293667     0.09300
Cu932      Cu  0.31906353  0.32126148  0.13628522     0.44200
Cu933      Cu  0.34080127  0.28654241  0.10825160     0.42000
Cu934      Cu  0.30947160  0.02621127  0.10648622     0.43900
N935        N  0.32142289  0.04018334  0.13475397    -0.34300
N936        N  0.31039981  0.05077600  0.12429070    -0.28600
C937        C  0.30335209  0.07951698  0.12744617    -0.04700
C938        C  0.31038652  0.08710592  0.14056834     0.07600
C939        C  0.32358916  0.06269929  0.14461502     0.01400
H940        H  0.29358483  0.09356485  0.12072036     0.09000
H941        H  0.33350108  0.06060481  0.15411017     0.08100
N942        N  0.32205594  0.00240364  0.09060690    -0.35800
N943        N  0.33381856  0.31051471  0.09126832    -0.27900
C944        C  0.33969580  0.30202652  0.07926170    -0.03200
C945        C  0.33089166  0.32296713  0.07053244     0.05400
C946        C  0.31984945  0.01045895  0.07813435     0.03500
H947        H  0.34935745  0.28171116  0.07711731     0.08600
H948        H  0.31063607  0.03039564  0.07491453     0.07500
N949        N  0.29223915  0.23373324  0.22716517    -0.26900
N950        N  0.27512701  0.24058640  0.21744356    -0.34800
C951        C  0.27115628  0.21680994  0.20762082     0.01400
C952        C  0.28694383  0.19417867  0.21128500     0.07400
C953        C  0.29944849  0.20532434  0.22381611    -0.05700
H954        H  0.25844149  0.21659970  0.19839368     0.08100
H955        H  0.31392061  0.19450452  0.22991332     0.09300
Cu956      Cu  0.26224097  0.28515312  0.21753286     0.44200
Cu957      Cu  0.30778120  0.26550725  0.24416363     0.42000
Cu958      Cu  0.31025934  0.02235027  0.24366769     0.43900
N959        N  0.27022486  0.00822716  0.21788525    -0.34300
N960        N  0.29067183  0.03488855  0.22672517    -0.28600
C961        C  0.29611439  0.06978776  0.22283092    -0.04700
C962        C  0.27831833  0.06525874  0.21091504     0.07600
C963        C  0.26073606  0.02510640  0.20842649     0.01400
H964        H  0.31307798  0.09697210  0.22810693     0.09000
H965        H  0.24221614  0.00870069  0.20044569     0.09600
N966        N  0.32189781  0.33541893  0.25978694    -0.35800
N967        N  0.32150016  0.30189649  0.26004019    -0.27900
C968        C  0.32879807  0.29495056  0.27210197    -0.03200
C969        C  0.33384183  0.32544722  0.27997130     0.05400
C970        C  0.33061360  0.01541096  0.27199915     0.03500
H971        H  0.32878020  0.26869151  0.27497668     0.08600
H972        H  0.33288290  0.04294027  0.27452505     0.07500
C973        C  0.31686973  0.18261292  0.14965216    -0.10500
C974        C  0.31351614  0.15089351  0.14260184    -0.04300
C975        C  0.30639169  0.11605242  0.14853978    -0.10500
C976        C  0.29808972  0.11083543  0.16195341     0.10500
C977        C  0.30246767  0.14265837  0.16939659    -0.02300
C978        C  0.31411377  0.17936327  0.16334399     0.10300
C979        C  0.32432478  0.21185131  0.17128617    -0.12300
C980        C  0.31637198  0.20705853  0.18442037    -0.12300
C981        C  0.29989469  0.16984217  0.19033145     0.10300
C982        C  0.29577814  0.13795305  0.18298712    -0.02300
C983        C  0.28561034  0.07475391  0.16819151    -0.12400
C984        C  0.28280730  0.07133958  0.18149516    -0.12400
C985        C  0.28626734  0.10193032  0.18921684     0.10500
C986        C  0.28109180  0.09828413  0.20288323    -0.10500
C987        C  0.28155567  0.12918233  0.20961436    -0.04300
C988        C  0.28978532  0.16429298  0.20354374    -0.10500
H989        H  0.33995852  0.24162054  0.16760347     0.07700
H990        H  0.32476453  0.23323573  0.18997604     0.07700
H991        H  0.27737626  0.04821303  0.16293194     0.07900
H992        H  0.27759475  0.04406212  0.18530138     0.07900
H993        H  0.31735132  0.15347372  0.13228355     0.04400
H994        H  0.27519278  0.12577369  0.21984209     0.04400
C995        C  0.53728845  0.20532310  0.86884387    -0.10500
C996        C  0.50334386  0.17675523  0.87521197    -0.04300
C997        C  0.47445966  0.14258495  0.86911806    -0.10500
C998        C  0.47962493  0.13635825  0.85598822     0.10500
C999        C  0.51391711  0.16484183  0.84927041    -0.02300
C1000       C  0.54291094  0.19935314  0.85572188     0.10300
C1001       C  0.57686847  0.22632191  0.84890012    -0.12300
C1002       C  0.58152087  0.22090542  0.83597114    -0.12300
C1003       C  0.55414506  0.18653742  0.82945260     0.10300
C1004       C  0.51965147  0.15832013  0.83613522    -0.02300
C1005       C  0.45206688  0.10220649  0.84942268    -0.12400
C1006       C  0.45639610  0.09718267  0.83644413    -0.12400
C1007       C  0.49041214  0.12406347  0.82964029     0.10500
C1008       C  0.49585734  0.11821098  0.81649751    -0.10500
C1009       C  0.53026556  0.14607770  0.81023270    -0.04300
C1010       C  0.55955974  0.17984787  0.81638723    -0.10500
H1011       H  0.60061132  0.25210778  0.85337122     0.07700
H1012       H  0.60682238  0.24465284  0.83123427     0.07700
H1013       H  0.42666683  0.07848796  0.85412418     0.07900
H1014       H  0.43238450  0.07171231  0.83193446     0.07900
H1015       H  0.49900847  0.18149661  0.88519225     0.04400
H1016       H  0.53464440  0.14094996  0.80029826     0.04400
C1017       C  0.50112782  0.35624005  0.48110672    -0.10500
C1018       C  0.52526819  0.34544177  0.47465735    -0.04300
C1019       C  0.54948859  0.33529189  0.48133657    -0.10500
C1020       C  0.54645261  0.33215510  0.49496370     0.10500
C1021       C  0.52555234  0.34671157  0.50166268    -0.02300
C1022       C  0.50483579  0.36103946  0.49470535     0.10300
C1023       C  0.48971174  0.38079836  0.50157598    -0.12300
C1024       C  0.48925754  0.38070699  0.51500429    -0.12300
C1025       C  0.50418281  0.36110874  0.52211566     0.10300
C1026       C  0.52528244  0.34682729  0.51538318    -0.02300
C1027       C  0.56246485  0.31362151  0.50208767    -0.12400
C1028       C  0.56215515  0.31371127  0.51547532    -0.12400
C1029       C  0.54604177  0.33254667  0.52231758     0.10500
C1030       C  0.54900055  0.33644913  0.53590078    -0.10500
C1031       C  0.52399741  0.01400328  0.54249988    -0.04300
C1032       C  0.50014003  0.35661870  0.53574371    -0.10500
H1033       H  0.47916459  0.39759103  0.49664706     0.07700
H1034       H  0.47830091  0.39733398  0.51974335     0.07700
H1035       H  0.57437701  0.29778462  0.49739318     0.07900
H1036       H  0.57370130  0.29779099  0.52039736     0.07900
H1037       H  0.52531848  0.34486295  0.46427314     0.04400
H1038       H  0.52422846  0.01415453  0.55288493     0.04400
C1039       C  0.33928315  0.32840711  0.29422359    -0.03000
C1040       C  0.35025090  0.96802348  0.30099328    -0.08700
C1041       C  0.35171927  0.30469903  0.31437918    -0.16400
C1042       C  0.34547857  0.33105750  0.32139875     0.25700
C1043       C  0.67017137  0.35654535  0.31482357    -0.18100
C1044       C  0.66719218  0.35533586  0.30136861    -0.07000
C1045       C  0.68070343  0.33151830  0.33533745    -0.13400
C1046       C  0.34838296  0.33171239  0.34698690    -0.13200
C1047       C  0.34928111  0.33180633  0.36093147     0.25600
C1048       C  0.64940763  0.32398114  0.36802113    -0.18600
C1049       C  0.65014092  0.32391076  0.38151001    -0.07000
C1050       C  0.35087209  0.33170220  0.38820278    -0.03100
C1051       C  0.38219145  0.00012100  0.38127931    -0.08400
C1052       C  0.38334040  0.33967661  0.36747039    -0.16100
H1053       H  0.35534688  0.94747672  0.29580598     0.12100
H1054       H  0.36080232  0.94969999  0.31931230     0.11400
H1055       H  0.66526650  0.37711475  0.32010570     0.11300
H1056       H  0.65977798  0.37497205  0.29662991     0.11800
H1057       H  0.62285015  0.31793561  0.36311522     0.11900
H1058       H  0.62391995  0.31781840  0.38662595     0.11900
H1059       H  0.40739479  0.00268624  0.38616113     0.12000
H1060       H  0.40648589  0.00175600  0.36262932     0.10800
C1061       C  0.34988539  0.32444351  0.72255756    -0.03000
C1062       C  0.65155750  0.29394161  0.71568748    -0.08700
C1063       C  0.65122175  0.29421354  0.70221454    -0.16400
C1064       C  0.34908375  0.32495525  0.69534014     0.25700
C1065       C  0.38395453  0.01646961  0.70194131    -0.18100
C1066       C  0.38525911  0.01673811  0.71541426    -0.07000
C1067       C  0.34908143  0.32456428  0.68142901    -0.13400
C1068       C  0.34886410  0.32388142  0.66979203    -0.13200
C1069       C  0.34842374  0.32330671  0.65588091     0.25600
C1070       C  0.38098022  0.00019668  0.64938487    -0.18600
C1071       C  0.38166960  0.00098507  0.63590429    -0.07000
C1072       C  0.34848649  0.32437761  0.62866629    -0.03100
C1073       C  0.65080833  0.32293784  0.63568786    -0.08400
C1074       C  0.65082696  0.32243219  0.64916450    -0.16100
H1075       H  0.62704060  0.26965448  0.72065414     0.12100
H1076       H  0.62673543  0.27028594  0.69715666     0.11400
H1077       H  0.41091157  0.03385062  0.69652804     0.11300
H1078       H  0.41336838  0.03420498  0.72011298     0.11800
H1079       H  0.40737415  0.00720396  0.65459928     0.11900
H1080       H  0.40880160  0.00863762  0.63109009     0.11900
H1081       H  0.62674114  0.32283961  0.63082719     0.12000
H1082       H  0.62686749  0.32175437  0.65434728     0.10800
C1083       C  0.34774759  0.32716876  0.96255637    -0.03000
C1084       C  0.64798288  0.96590639  0.96924397    -0.08700
C1085       C  0.64716201  0.96553023  0.98271962    -0.16400
C1086       C  0.34776637  0.99067125  0.98970471     0.25700
C1087       C  0.38273790  0.01593342  0.98310167    -0.18100
C1088       C  0.37997480  0.35626411  0.96959455    -0.07000
C1089       C  0.34643467  0.99091043  0.00360946    -0.13400
C1090       C  0.34441756  0.99097391  0.01522473    -0.13200
C1091       C  0.34126051  0.99073528  0.02909094     0.25600
C1092       C  0.35260716  0.96896341  0.03661905    -0.18600
C1093       C  0.35191258  0.30535630  0.05002638    -0.07000
C1094       C  0.33362971  0.32322079  0.05623028    -0.03100
C1095       C  0.65667131  0.01166999  0.04853234    -0.08400
C1096       C  0.65996717  0.01209406  0.03509814    -0.16100
H1097       H  0.62109105  0.94651659  0.96414297     0.12100
H1098       H  0.61989596  0.94581512  0.98769221     0.11400
H1099       H  0.40930157  0.03543259  0.98837428     0.11300
H1100       H  0.40566253  0.37952198  0.96475060     0.11800
H1101       H  0.36401266  0.95232206  0.03211259     0.11900
H1102       H  0.36417776  0.29101687  0.05549980     0.11900
H1103       H  0.64519523  0.02845293  0.05283381     0.12000
H1104       H  0.65102111  0.02905126  0.02939345     0.10800
N1105       N  0.40640034  0.40893986  0.89353611    -0.26900
N1106       N  0.38194294  0.40250909  0.88396492    -0.34800
C1107       C  0.40248304  0.42498888  0.87382704     0.01400
C1108       C  0.44204866  0.44545196  0.87696056     0.07400
C1109       C  0.44318084  0.43500878  0.88963533    -0.05700
H1110       H  0.38943227  0.42563450  0.86476951     0.08100
H1111       H  0.46903379  0.44504108  0.89552834     0.09300
Cu1112     Cu  0.65672005  0.35739696  0.88396795     0.44200
Cu1113     Cu  0.38926218  0.38129398  0.91136992     0.42000
Cu1114     Cu  0.63459611  0.62304043  0.91045064     0.43900
N1115       N  0.61198777  0.63111011  0.88324311    -0.34300
N1116       N  0.60609864  0.60628893  0.89273701    -0.28600
C1117       C  0.57950912  0.56952890  0.88895596    -0.04700
C1118       C  0.56817713  0.57098254  0.87643543     0.07600
C1119       C  0.58872955  0.61081540  0.87327700     0.01400
H1120       H  0.56961827  0.54342457  0.89482890     0.09000
H1121       H  0.58754520  0.62418942  0.86432143     0.08100
N1122       N  0.66459417  0.64905775  0.92743053    -0.35800
N1123       N  0.36318256  0.34840545  0.92789672    -0.27900
C1124       C  0.37522388  0.35778014  0.94014935    -0.03200
C1125       C  0.34843558  0.66434049  0.94794183     0.05400
C1126       C  0.65427225  0.63615023  0.93962440     0.03500
H1127       H  0.40156444  0.38473759  0.94292949     0.08600
H1128       H  0.62814397  0.60857022  0.94218068     0.07500
N1129       N  0.42899523  0.38135749  0.79187811    -0.26900
N1130       N  0.42275271  0.35676192  0.80148169    -0.34800
C1131       C  0.44589553  0.37711762  0.81143905     0.01400
C1132       C  0.46675083  0.41680231  0.80817901     0.07400
C1133       C  0.45577652  0.41812886  0.79559404    -0.05700
H1134       H  0.44683936  0.36384823  0.82044820     0.08100
H1135       H  0.46604924  0.44413036  0.78963454     0.09300
Cu1136     Cu  0.37704900  0.63265041  0.80135902     0.44200
Cu1137     Cu  0.40074232  0.36422982  0.77413134     0.42000
Cu1138     Cu  0.64489552  0.60818146  0.77373228     0.43900
N1139       N  0.65277831  0.58614041  0.80098435    -0.34300
N1140       N  0.62835908  0.57954780  0.79138573    -0.28600
C1141       C  0.59176013  0.55253701  0.79513960    -0.04700
C1142       C  0.59300687  0.54173530  0.80774658     0.07600
C1143       C  0.63244346  0.56281249  0.81098473     0.01400
H1144       H  0.56590973  0.54237820  0.78923640     0.09000
H1145       H  0.64546221  0.56233523  0.82006972     0.08100
N1146       N  0.67085579  0.64027875  0.75709768    -0.35800
N1147       N  0.36981811  0.33801175  0.75730659    -0.27900
C1148       C  0.37905435  0.35135559  0.74511200    -0.03200
C1149       C  0.35217761  0.66000893  0.73676760     0.05400
C1150       C  0.65757764  0.63145004  0.74494579     0.03500
H1151       H  0.40475687  0.37919198  0.74247556     0.08600
H1152       H  0.63012818  0.60548577  0.74226303     0.07500
N1153       N  0.61403688  0.65815604  0.45800925    -0.26900
N1154       N  0.63635769  0.66955966  0.46836872    -0.34800
C1155       C  0.61682053  0.67369686  0.47815742     0.01400
C1156       C  0.57953412  0.66327487  0.47402405     0.07400
C1157       C  0.57910894  0.65398803  0.46107086    -0.05700
H1158       H  0.62966118  0.68512126  0.48748167     0.08100
H1159       H  0.55568574  0.64611348  0.45425304     0.09300
Cu1160     Cu  0.35944676  0.67979945  0.46881582     0.44200
Cu1161     Cu  0.63591800  0.65447692  0.44006876     0.42000
Cu1162     Cu  0.40759668  0.68368026  0.43929849     0.43900
N1163       N  0.41447633  0.68654464  0.46806143    -0.34300
N1164       N  0.43350717  0.69008267  0.45727476    -0.28600
C1165       C  0.46821717  0.69372858  0.46020182    -0.04700
C1166       C  0.47118886  0.69211890  0.47354662     0.07600
C1167       C  0.43581550  0.68663430  0.47806826     0.01400
H1168       H  0.48892986  0.69574401  0.45306057     0.09000
H1169       H  0.42493812  0.68072169  0.48784703     0.08100
N1170       N  0.37227041  0.67149961  0.42306794    -0.35800
N1171       N  0.66802045  0.66056562  0.42331941    -0.27900
C1172       C  0.65476300  0.65559040  0.41112975    -0.03200
C1173       C  0.35197379  0.66374385  0.40274307     0.05400
C1174       C  0.38368035  0.67364467  0.41073982     0.03500
H1175       H  0.62515141  0.64739878  0.40859126     0.08600
H1176       H  0.41306068  0.68181909  0.40786033     0.07500
N1177       N  0.43184282  0.68956469  0.55951172    -0.26900
N1178       N  0.41311853  0.68658616  0.54871931    -0.34800
C1179       C  0.43486912  0.68758035  0.53868615     0.01400
C1180       C  0.47022438  0.69307121  0.54321886     0.07400
C1181       C  0.46678028  0.69383637  0.55657911    -0.05700
H1182       H  0.42429620  0.68228785  0.52889235     0.08100
H1183       H  0.48728054  0.69561388  0.56375145     0.09300
Cu1184     Cu  0.35841944  0.68027411  0.54816393     0.44200
Cu1185     Cu  0.40553013  0.68164744  0.57755335     0.42000
Cu1186     Cu  0.63639641  0.65907213  0.57746667     0.43900
N1187       N  0.63669492  0.67299462  0.54907592    -0.34300
N1188       N  0.61496597  0.66316951  0.55959105    -0.28600
C1189       C  0.58020717  0.65934729  0.55658532    -0.04700
C1190       C  0.58015183  0.66712857  0.54349827     0.07600
C1191       C  0.61702443  0.67660565  0.53923228     0.01400
H1192       H  0.55705475  0.65214207  0.56347853     0.09000
H1193       H  0.62937679  0.68651939  0.52972106     0.08100
N1194       N  0.66737364  0.66105342  0.59391651    -0.35800
N1195       N  0.37076005  0.66925108  0.59400941    -0.27900
C1196       C  0.38157205  0.66905229  0.60628425    -0.03200
C1197       C  0.35027511  0.66047744  0.61437589     0.05400
C1198       C  0.65404229  0.65558440  0.60609704     0.03500
H1199       H  0.41047958  0.67550913  0.60906272     0.08600
H1200       H  0.62491350  0.64894091  0.60865587     0.07500
N1201       N  0.33388829  0.59269784  0.12591313    -0.26900
N1202       N  0.32319756  0.60495194  0.13597904    -0.34800
C1203       C  0.31351775  0.57920000  0.14570920     0.01400
C1204       C  0.32081729  0.54997514  0.14199386     0.07400
C1205       C  0.33325087  0.55952524  0.12920487    -0.05700
H1206       H  0.30056402  0.58125435  0.15458161     0.08100
H1207       H  0.34024583  0.54311284  0.12257872     0.09300
Cu1208     Cu  0.32402363  0.65685855  0.13598821     0.44200
Cu1209     Cu  0.34104130  0.61898599  0.10789472     0.42000
Cu1210     Cu  0.30848146  0.35926747  0.10637684     0.43900
N1211       N  0.31407716  0.36986023  0.13481386    -0.34300
N1212       N  0.30546037  0.38172332  0.12411456    -0.28600
C1213       C  0.29810202  0.41038736  0.12705734    -0.04700
C1214       C  0.30243580  0.41662808  0.14029838     0.07600
C1215       C  0.31424809  0.39138535  0.14467815     0.01400
H1216       H  0.29037884  0.42558106  0.12008104     0.09000
H1217       H  0.32238893  0.38843902  0.15436103     0.08100
N1218       N  0.32153352  0.33577079  0.09059006    -0.35800
N1219       N  0.33428387  0.64362422  0.09100456    -0.27900
C1220       C  0.33983160  0.63524849  0.07893541    -0.03200
C1221       C  0.33162366  0.65694536  0.07033759     0.05400
C1222       C  0.31949270  0.34403623  0.07814168     0.03500
H1223       H  0.34890254  0.61454948  0.07664416     0.08600
H1224       H  0.31068442  0.36431302  0.07494106     0.07500
N1225       N  0.28847776  0.56415753  0.22715512    -0.26900
N1226       N  0.27287767  0.57259505  0.21735427    -0.34800
C1227       C  0.26865984  0.54912542  0.20741569     0.01400
C1228       C  0.28275855  0.52503509  0.21107274     0.07400
C1229       C  0.29450631  0.53501556  0.22372916    -0.05700
H1230       H  0.25685961  0.55006026  0.19812780     0.08100
H1231       H  0.30759277  0.52283148  0.22987882     0.09300
Cu1232     Cu  0.26234234  0.61866996  0.21748759     0.44200
Cu1233     Cu  0.30335830  0.59468208  0.24439046     0.42000
Cu1234     Cu  0.30885234  0.35664329  0.24325724     0.43900
N1235       N  0.26700766  0.33987438  0.21766855    -0.34300
N1236       N  0.28780188  0.36732420  0.22625079    -0.28600
C1237       C  0.29204101  0.40155823  0.22216601    -0.04700
C1238       C  0.27294057  0.39575728  0.21042078     0.07600
C1239       C  0.25610736  0.35552282  0.20821291     0.01400
H1240       H  0.30888822  0.42916493  0.22723155     0.09000
H1241       H  0.23672005  0.33795804  0.20058409     0.09600
N1242       N  0.31994787  0.66531887  0.26009612    -0.35800
N1243       N  0.31724103  0.63066940  0.26037285    -0.27900
C1244       C  0.32338806  0.62283538  0.27246540    -0.03200
C1245       C  0.33023569  0.65398965  0.28031974     0.05400
C1246       C  0.32930358  0.35061442  0.27174051     0.03500
H1247       H  0.32178729  0.59578867  0.27534517     0.08600
H1248       H  0.33032564  0.37755335  0.27426312     0.07500
C1249       C  0.31291874  0.51388784  0.14935995    -0.10500
C1250       C  0.30802965  0.48161678  0.14224619    -0.04300
C1251       C  0.29866970  0.44596435  0.14810466    -0.10500
C1252       C  0.28944583  0.44056484  0.16143382     0.10500
C1253       C  0.29559045  0.47284698  0.16897531    -0.02300
C1254       C  0.30938410  0.51019077  0.16304696     0.10300
C1255       C  0.32097178  0.54271783  0.17111820    -0.12300
C1256       C  0.31261063  0.53777026  0.18422992    -0.12300
C1257       C  0.29456005  0.50026924  0.19001661     0.10300
C1258       C  0.28886588  0.46798017  0.18255810    -0.02300
C1259       C  0.27447515  0.40381152  0.16748932    -0.12400
C1260       C  0.27152489  0.39997481  0.18078361    -0.12400
C1261       C  0.27789172  0.43137819  0.18867409     0.10500
C1262       C  0.27398662  0.42800287  0.20238595    -0.10500
C1263       C  0.27538591  0.45922408  0.20920477    -0.04300
C1264       C  0.28446182  0.49470014  0.20322636    -0.10500
H1265       H  0.33813950  0.57256385  0.16758062     0.07700
H1266       H  0.32216405  0.56400956  0.18988804     0.07700
H1267       H  0.26464173  0.37717852  0.16205376     0.07900
H1268       H  0.26340492  0.37170562  0.18440563     0.07900
H1269       H  0.31260901  0.48439126  0.13196419     0.04400
H1270       H  0.26945909  0.45591187  0.21945847     0.04400
C1271       C  0.53916047  0.53654436  0.86865326    -0.10500
C1272       C  0.50567887  0.50753814  0.87511886    -0.04300
C1273       C  0.47640362  0.47367915  0.86896598    -0.10500
C1274       C  0.48107260  0.46788554  0.85574931     0.10500
C1275       C  0.51488944  0.49677164  0.84894044    -0.02300
C1276       C  0.54401698  0.53118988  0.85540102     0.10300
C1277       C  0.57736154  0.55873424  0.84844316    -0.12300
C1278       C  0.58122534  0.55398384  0.83540672    -0.12300
C1279       C  0.55382402  0.51964677  0.82888345     0.10300
C1280       C  0.51997388  0.49083122  0.83568254    -0.02300
C1281       C  0.45341322  0.43380638  0.84917290    -0.12400
C1282       C  0.45719197  0.42922290  0.83611580    -0.12400
C1283       C  0.49076468  0.45653597  0.82919954     0.10500
C1284       C  0.49576202  0.45110870  0.81596447    -0.10500
C1285       C  0.52949851  0.47977068  0.80955022    -0.04300
C1286       C  0.55869439  0.51359211  0.81571326    -0.10500
H1287       H  0.60128053  0.58443383  0.85288492     0.07700
H1288       H  0.60603804  0.57814405  0.83060562     0.07700
H1289       H  0.42841360  0.40977531  0.85394767     0.07900
H1290       H  0.43303811  0.40381496  0.83163333     0.07900
H1291       H  0.50179451  0.51196119  0.88517092     0.04400
H1292       H  0.53355353  0.47520641  0.79952436     0.04400
C1293       C  0.50173305  0.68921179  0.48111616    -0.10500
C1294       C  0.52552619  0.67792801  0.47468628    -0.04300
C1295       C  0.54978126  0.66785700  0.48139589    -0.10500
C1296       C  0.54694387  0.66507884  0.49503062     0.10500
C1297       C  0.52622169  0.67989308  0.50169200    -0.02300
C1298       C  0.50563322  0.69429435  0.49470135     0.10300
C1299       C  0.49078862  0.71438910  0.50152675    -0.12300
C1300       C  0.49034671  0.71445731  0.51495378    -0.12300
C1301       C  0.50509730  0.69477232  0.52210537     0.10300
C1302       C  0.52606121  0.68026902  0.51541012    -0.02300
C1303       C  0.56307032  0.64673627  0.50220337    -0.12400
C1304       C  0.56298963  0.64720303  0.51558952    -0.12400
C1305       C  0.54686815  0.66611142  0.52238119     0.10500
C1306       C  0.54992403  0.67025535  0.53595393    -0.10500
C1307       C  0.52450176  0.34649131  0.54238629    -0.04300
C1308       C  0.50109984  0.69046920  0.53573807    -0.10500
H1309       H  0.48037100  0.73124064  0.49656051     0.07700
H1310       H  0.47958994  0.73130884  0.51965716     0.07700
H1311       H  0.57494304  0.63080081  0.49755119     0.07900
H1312       H  0.57472658  0.63152450  0.52055696     0.07900
H1313       H  0.52534432  0.67702129  0.46430133     0.04400
H1314       H  0.52454060  0.34639978  0.55277088     0.04400
C1315       C  0.33635988  0.65699805  0.29453268    -0.03000
C1316       C  0.34868014  0.30337104  0.30092537    -0.08700
C1317       C  0.34948491  0.63318235  0.31453351    -0.16400
C1318       C  0.34464055  0.66032036  0.32163510     0.25700
C1319       C  0.66962861  0.68624185  0.31516763    -0.18100
C1320       C  0.66562118  0.68469609  0.30174352    -0.07000
C1321       C  0.68073349  0.66110075  0.33554907    -0.13400
C1322       C  0.34877910  0.66144120  0.34719646    -0.13200
C1323       C  0.34964827  0.66177431  0.36113859     0.25600
C1324       C  0.64788484  0.64347748  0.36820082    -0.18600
C1325       C  0.64858689  0.64404708  0.38169067    -0.07000
C1326       C  0.35116398  0.66289282  0.38838417    -0.03100
C1327       C  0.38417565  0.33964263  0.38096254    -0.08400
C1328       C  0.38551447  0.68056392  0.36769857    -0.16100
H1329       H  0.35354114  0.28255174  0.29581872     0.12100
H1330       H  0.35860875  0.28488616  0.31931314     0.11400
H1331       H  0.66576167  0.70738721  0.32051728     0.11300
H1332       H  0.65851257  0.70466990  0.29708044     0.11800
H1333       H  0.61989474  0.62875155  0.36327570     0.11900
H1334       H  0.62094816  0.62944060  0.38684352     0.11900
H1335       H  0.41098797  0.34578253  0.38565643     0.12000
H1336       H  0.40931452  0.34581536  0.36213768     0.10800
C1337       C  0.35086183  0.66136176  0.72249802    -0.03000
C1338       C  0.64823795  0.64008807  0.71593164    -0.08700
C1339       C  0.64716901  0.64023412  0.70246347    -0.16400
C1340       C  0.34866323  0.66146260  0.69535482     0.25700
C1341       C  0.38039876  0.35568560  0.70204910    -0.18100
C1342       C  0.38081634  0.35549030  0.71553272    -0.07000
C1343       C  0.34778409  0.66035790  0.68146331    -0.13400
C1344       C  0.34758970  0.65930812  0.66983810    -0.13200
C1345       C  0.34783374  0.65843603  0.65594277     0.25600
C1346       C  0.37910631  0.32413894  0.64901197    -0.18600
C1347       C  0.37917720  0.32467841  0.63552715    -0.07000
C1348       C  0.34915390  0.65888991  0.62873169    -0.03100
C1349       C  0.64990122  0.65481821  0.63551962    -0.08400
C1350       C  0.64929643  0.65461991  0.64898913    -0.16100
H1351       H  0.62089312  0.62335758  0.72117727     0.12100
H1352       H  0.61921450  0.62348413  0.69759295     0.11400
H1353       H  0.40469688  0.37967277  0.69685755     0.11300
H1354       H  0.40567289  0.37948558  0.72038589     0.11800
H1355       H  0.40315412  0.32464855  0.65407858     0.11900
H1356       H  0.40335264  0.32537935  0.63052450     0.11900
H1357       H  0.62490099  0.65220477  0.63049081     0.12000
H1358       H  0.62403900  0.65176939  0.65397512     0.10800
C1359       C  0.34822110  0.66360943  0.96230816    -0.03000
C1360       C  0.64867487  0.29731676  0.96939736    -0.08700
C1361       C  0.64823736  0.29697959  0.98286878    -0.16400
C1362       C  0.34677078  0.32637259  0.98976424     0.25700
C1363       C  0.37944106  0.35585439  0.98307529    -0.18100
C1364       C  0.37900322  0.69437180  0.96936833    -0.07000
C1365       C  0.34564017  0.32636553  0.00365986    -0.13400
C1366       C  0.34354456  0.32586951  0.01527179    -0.13200
C1367       C  0.34015002  0.32491556  0.02912641     0.25600
C1368       C  0.35514970  0.30624508  0.03659693    -0.18600
C1369       C  0.35422007  0.64173106  0.04970917    -0.07000
C1370       C  0.33439037  0.65776294  0.05604054    -0.03100
C1371       C  0.65346092  0.34341745  0.04861516    -0.08400
C1372       C  0.65675740  0.34424386  0.03518531    -0.16100
H1373       H  0.62332015  0.27435358  0.96442125     0.12100
H1374       H  0.62280423  0.27391628  0.98792248     0.11400
H1375       H  0.40443972  0.37868546  0.98827494     0.11300
H1376       H  0.40367020  0.71890615  0.96454055     0.11800
H1377       H  0.36948859  0.29245931  0.03204436     0.11900
H1378       H  0.36774718  0.62848327  0.05510419     0.11900
H1379       H  0.64036143  0.35862270  0.05297790     0.12000
H1380       H  0.64629895  0.36001501  0.02954023     0.10800
N1381       N  0.40602157  0.74316255  0.89308276    -0.26900
N1382       N  0.38156173  0.73629195  0.88347473    -0.34800
C1383       C  0.40196980  0.75925959  0.87340734     0.01400
C1384       C  0.44150553  0.78027706  0.87660657     0.07400
C1385       C  0.44267220  0.76977268  0.88925913    -0.05700
H1386       H  0.38884715  0.75975473  0.86434804     0.08100
H1387       H  0.46848796  0.78006452  0.89519073     0.09300
Cu1388     Cu  0.65701133  0.68984117  0.88328617     0.44200
Cu1389     Cu  0.38942927  0.71603214  0.91094989     0.42000
Cu1390     Cu  0.63551638  0.95374847  0.91067311     0.43900
N1391       N  0.61278798  0.96354554  0.88372564    -0.34300
N1392       N  0.60696021  0.93799660  0.89295845    -0.28600
C1393       C  0.58041179  0.90154405  0.88890161    -0.04700
C1394       C  0.56912116  0.90403201  0.87646347     0.07600
C1395       C  0.58969739  0.94405985  0.87363662     0.01400
H1396       H  0.57034483  0.87498054  0.89454603     0.09000
H1397       H  0.58846801  0.95811766  0.86484797     0.08100
N1398       N  0.66598026  0.97906712  0.92764143    -0.35800
N1399       N  0.36391324  0.68387749  0.92758768    -0.27900
C1400       C  0.37529242  0.69420878  0.93985057    -0.03200
C1401       C  0.34997010  0.99298732  0.94817139     0.05400
C1402       C  0.65552179  0.96556707  0.93977576     0.03500
H1403       H  0.40083031  0.72190989  0.94259899     0.08600
H1404       H  0.62921704  0.93803947  0.94226976     0.07500
N1405       N  0.43105828  0.71511399  0.79158882    -0.26900
N1406       N  0.42304603  0.69069393  0.80138220    -0.34800
C1407       C  0.44538078  0.71104507  0.81148395     0.01400
C1408       C  0.46751975  0.75060651  0.80808013     0.07400
C1409       C  0.45809102  0.75177800  0.79529415    -0.05700
H1410       H  0.44502229  0.69783968  0.82065470     0.08100
H1411       H  0.46960568  0.77760429  0.78917289     0.09300
Cu1412     Cu  0.37846894  0.96600367  0.80143430     0.44200
Cu1413     Cu  0.40442515  0.69781857  0.77369126     0.42000
Cu1414     Cu  0.64717859  0.94002073  0.77382729     0.43900
N1415       N  0.65468906  0.91863933  0.80114352    -0.34300
N1416       N  0.63047451  0.91144807  0.79144088    -0.28600
C1417       C  0.59386512  0.88445048  0.79514971    -0.04700
C1418       C  0.59484420  0.87425107  0.80784918     0.07600
C1419       C  0.63420454  0.89568172  0.81119762     0.01400
H1420       H  0.56814016  0.87409126  0.78916859     0.09000
H1421       H  0.64703782  0.89581586  0.82038761     0.08100
N1422       N  0.67192005  0.97286330  0.75727106    -0.35800
N1423       N  0.37231365  0.67306568  0.75703661    -0.27900
C1424       C  0.38230411  0.68587988  0.74482915    -0.03200
C1425       C  0.35230712  0.99286811  0.73695595     0.05400
C1426       C  0.65905187  0.96316670  0.74511004     0.03500
H1427       H  0.40956856  0.71208108  0.74206855     0.08600
H1428       H  0.63284306  0.93592886  0.74240798     0.07500
N1429       N  0.61311439  0.99365267  0.45792337    -0.26900
N1430       N  0.63502020  0.00388700  0.46836686    -0.34800
C1431       C  0.61528702  0.00734580  0.47823253     0.01400
C1432       C  0.57823739  0.99760655  0.47404999     0.07400
C1433       C  0.57823559  0.98952273  0.46099733    -0.05700
H1434       H  0.62787901  0.01784536  0.48764726     0.08100
H1435       H  0.55509994  0.98236090  0.45413036     0.09300
Cu1436     Cu  0.35763811  0.01311101  0.46882773     0.44200
Cu1437     Cu  0.63518188  0.99082854  0.43992470     0.42000
Cu1438     Cu  0.40584936  0.01705209  0.43933642     0.43900
N1439       N  0.41228508  0.01918034  0.46810641    -0.34300
N1440       N  0.43144410  0.02292208  0.45733453    -0.28600
C1441       C  0.46614003  0.02660105  0.46028838    -0.04700
C1442       C  0.46894290  0.02480438  0.47363523     0.07600
C1443       C  0.43348222  0.01911430  0.47812903     0.01400
H1444       H  0.48701840  0.02891842  0.45316085     0.09000
H1445       H  0.42254034  0.01316964  0.48790013     0.08100
N1446       N  0.37092911  0.00548374  0.42304189    -0.35800
N1447       N  0.66709413  0.99605117  0.42321993    -0.27900
C1448       C  0.65411717  0.99151461  0.41100611    -0.03200
C1449       C  0.35106122  0.99823663  0.40266602     0.05400
C1450       C  0.38229665  0.00690060  0.41074839     0.03500
H1451       H  0.62472619  0.98399338  0.40844047     0.08600
H1452       H  0.41152847  0.01435729  0.40795940     0.07500
N1453       N  0.43056989  0.02382768  0.55959748    -0.26900
N1454       N  0.41169106  0.02039302  0.54880257    -0.34800
C1455       C  0.43322918  0.02086211  0.53879060     0.01400
C1456       C  0.46865205  0.02655148  0.54332361     0.07400
C1457       C  0.46543158  0.02786761  0.55667625    -0.05700
H1458       H  0.42249964  0.01518310  0.52901521     0.08100
H1459       H  0.48608891  0.02998778  0.56384738     0.09300
Cu1460     Cu  0.35713674  0.01435749  0.54821215     0.44200
Cu1461     Cu  0.40442492  0.01700716  0.57762283     0.42000
Cu1462     Cu  0.63474036  0.99256683  0.57752777     0.43900
N1463       N  0.63527856  0.00672181  0.54911828    -0.34300
N1464       N  0.61345423  0.99663287  0.55961906    -0.28600
C1465       C  0.57866592  0.99272842  0.55661253    -0.04700
C1466       C  0.57868805  0.00073945  0.54354610     0.07600
C1467       C  0.61561982  0.01040671  0.53928474     0.01400
H1468       H  0.55545245  0.98536108  0.56349695     0.09000
H1469       H  0.62800627  0.02049627  0.52978563     0.08100
N1470       N  0.66601322  0.99553026  0.59402214    -0.35800
N1471       N  0.36967215  0.00461897  0.59409465    -0.27900
C1472       C  0.38064690  0.00454377  0.60635099    -0.03200
C1473       C  0.34915054  0.99502115  0.61447550     0.05400
C1474       C  0.65264116  0.98955233  0.60621574     0.03500
H1475       H  0.40966577  0.01124042  0.60907593     0.08600
H1476       H  0.62329944  0.98218075  0.60880620     0.07500
N1477       N  0.33622483  0.92758366  0.12610459    -0.26900
N1478       N  0.32492081  0.93922063  0.13617010    -0.34800
C1479       C  0.31569041  0.91342533  0.14585883     0.01400
C1480       C  0.32405488  0.88494573  0.14211914     0.07400
C1481       C  0.33649152  0.89484824  0.12934681    -0.05700
H1482       H  0.30248309  0.91501290  0.15473860     0.08100
H1483       H  0.34421362  0.87902763  0.12271145     0.09300
Cu1484     Cu  0.32497822  0.99076607  0.13619501     0.44200
Cu1485     Cu  0.34297353  0.95413540  0.10819711     0.42000
Cu1486     Cu  0.31110426  0.69380697  0.10634114     0.43900
N1487       N  0.32081008  0.70644462  0.13464045    -0.34300
N1488       N  0.31099516  0.71780716  0.12408485    -0.28600
C1489       C  0.30395814  0.74657772  0.12717296    -0.04700
C1490       C  0.30968274  0.75335010  0.14036272     0.07600
C1491       C  0.32209729  0.72841356  0.14454290     0.01400
H1492       H  0.29506808  0.76117312  0.12035285     0.09000
H1493       H  0.33091851  0.72563288  0.15414017     0.08100
N1494       N  0.32278710  0.66953659  0.09046875    -0.35800
N1495       N  0.33486584  0.97757049  0.09129165    -0.27900
C1496       C  0.34086315  0.96912833  0.07930244    -0.03200
C1497       C  0.33168371  0.98967391  0.07053265     0.05400
C1498       C  0.32092362  0.67831837  0.07806694     0.03500
H1499       H  0.35117350  0.94931271  0.07722084     0.08600
H1500       H  0.31291209  0.69930255  0.07497287     0.07500
N1501       N  0.29112071  0.89877721  0.22720303    -0.26900
N1502       N  0.27539962  0.90698906  0.21738083    -0.34800
C1503       C  0.27151132  0.88355002  0.20745827     0.01400
C1504       C  0.28603975  0.85981260  0.21114602     0.07400
C1505       C  0.29761604  0.86992093  0.22380669    -0.05700
H1506       H  0.25975521  0.88434921  0.19814760     0.08100
H1507       H  0.31103455  0.85811326  0.22997126     0.09300
Cu1508     Cu  0.26450532  0.95300309  0.21750029     0.44200
Cu1509     Cu  0.30597167  0.92945680  0.24440568     0.42000
Cu1510     Cu  0.30993943  0.68864653  0.24344391     0.43900
N1511       N  0.26950310  0.67432962  0.21768558    -0.34300
N1512       N  0.29082521  0.70128108  0.22634667    -0.28600
C1513       C  0.29655656  0.73618331  0.22231051    -0.04700
C1514       C  0.27790320  0.73122787  0.21052539     0.07600
C1515       C  0.25975409  0.69097105  0.20823296     0.01400
H1516       H  0.31389198  0.76355612  0.22745877     0.09000
H1517       H  0.24038878  0.67422772  0.20044812     0.09600
N1518       N  0.32235422  0.00003363  0.26007979    -0.35800
N1519       N  0.32063808  0.96585361  0.26031296    -0.27900
C1520       C  0.32790522  0.95864049  0.27234410    -0.03200
C1521       C  0.33433575  0.98968229  0.28018630     0.05400
C1522       C  0.32780480  0.68040625  0.27206903     0.03500
H1523       H  0.32702343  0.93194096  0.27522308     0.08600
H1524       H  0.33094205  0.70833614  0.27457365     0.07500
C1525       C  0.31746588  0.84934240  0.14949477    -0.10500
C1526       C  0.31379324  0.81755033  0.14240788    -0.04300
C1527       C  0.30552476  0.78224642  0.14827812    -0.10500
C1528       C  0.29634817  0.77665306  0.16162135     0.10500
C1529       C  0.30120664  0.80854136  0.16912528    -0.02300
C1530       C  0.31394030  0.84563292  0.16317214     0.10300
C1531       C  0.32458846  0.87801407  0.17121258    -0.12300
C1532       C  0.31607929  0.87296007  0.18430743    -0.12300
C1533       C  0.29880742  0.83554980  0.19011490     0.10300
C1534       C  0.29422395  0.80359511  0.18269520    -0.02300
C1535       C  0.28265865  0.74015760  0.16773598    -0.12400
C1536       C  0.27955028  0.73641992  0.18103084    -0.12400
C1537       C  0.28418543  0.76732064  0.18884783     0.10500
C1538       C  0.27972077  0.76383099  0.20253517    -0.10500
C1539       C  0.28037942  0.79470031  0.20933465    -0.04300
C1540       C  0.28861079  0.82987855  0.20332210    -0.10500
H1541       H  0.34119517  0.90789119  0.16766589     0.07700
H1542       H  0.32496162  0.89910974  0.18993722     0.07700
H1543       H  0.27391979  0.71366309  0.16236482     0.07900
H1544       H  0.27300642  0.70848993  0.18478262     0.07900
H1545       H  0.31836676  0.82042862  0.13212462     0.04400
H1546       H  0.27429797  0.79123851  0.21957895     0.04400
C1547       C  0.53956509  0.87040864  0.86853717    -0.10500
C1548       C  0.50559336  0.84187490  0.87489455    -0.04300
C1549       C  0.47599591  0.80842592  0.86865506    -0.10500
C1550       C  0.48083440  0.80259403  0.85546141     0.10500
C1551       C  0.51511832  0.83107178  0.84875402    -0.02300
C1552       C  0.54447404  0.86518984  0.85528080     0.10300
C1553       C  0.57806336  0.89255563  0.84838584    -0.12300
C1554       C  0.58229015  0.88752973  0.83538931    -0.12300
C1555       C  0.55488302  0.85318706  0.82886045     0.10300
C1556       C  0.52050027  0.82489242  0.83555103    -0.02300
C1557       C  0.45291881  0.76883249  0.84881037    -0.12400
C1558       C  0.45690244  0.76422426  0.83578597    -0.12400
C1559       C  0.49107662  0.79084741  0.82901538     0.10500
C1560       C  0.49653586  0.78488778  0.81588352    -0.10500
C1561       C  0.53091394  0.81287021  0.80960458    -0.04300
C1562       C  0.56018905  0.84662776  0.81577949    -0.10500
H1563       H  0.60183090  0.91833993  0.85285473     0.07700
H1564       H  0.60736109  0.91147818  0.83062123     0.07700
H1565       H  0.42760214  0.74494901  0.85348074     0.07900
H1566       H  0.43247821  0.73926149  0.83122850     0.07900
H1567       H  0.50172481  0.84627908  0.88495037     0.04400
H1568       H  0.53536940  0.80785220  0.79966665     0.04400
C1569       C  0.49962212  0.02223279  0.48122399    -0.10500
C1570       C  0.52376112  0.01145356  0.47478769    -0.04300
C1571       C  0.54826705  0.00169074  0.48147493    -0.10500
C1572       C  0.54532833  0.99868388  0.49510685     0.10500
C1573       C  0.52439862  0.01323850  0.50178299    -0.02300
C1574       C  0.50349595  0.02731116  0.49480505     0.10300
C1575       C  0.48843990  0.04720264  0.50162873    -0.12300
C1576       C  0.48830917  0.04754424  0.51505215    -0.12300
C1577       C  0.50334549  0.02811889  0.52220374     0.10300
C1578       C  0.52435009  0.01368887  0.51549876    -0.02300
C1579       C  0.56150846  0.98036610  0.50226267    -0.12400
C1580       C  0.56148028  0.98083688  0.51565114    -0.12400
C1581       C  0.54531426  0.99968676  0.52245543     0.10500
C1582       C  0.54844652  0.00388564  0.53602601    -0.10500
C1583       C  0.52544853  0.68036131  0.54240785    -0.04300
C1584       C  0.49952146  0.02396073  0.53584110    -0.10500
H1585       H  0.47773556  0.06380417  0.49666288     0.07700
H1586       H  0.47753350  0.06438827  0.51974822     0.07700
H1587       H  0.57335209  0.96442684  0.49759684     0.07900
H1588       H  0.57331993  0.96523850  0.52061005     0.07900
H1589       H  0.52362019  0.01069360  0.46440593     0.04400
H1590       H  0.52561340  0.68043329  0.55279062     0.04400
C1591       C  0.34026302  0.99274701  0.29439358    -0.03000
C1592       C  0.34537996  0.63150155  0.30111325    -0.08700
C1593       C  0.35351746  0.96930220  0.31443833    -0.16400
C1594       C  0.34687111  0.99527460  0.32152667     0.25700
C1595       C  0.67125024  0.02064958  0.31503542    -0.18100
C1596       C  0.66809342  0.01951509  0.30159476    -0.07000
C1597       C  0.68187167  0.99544704  0.33545948    -0.13400
C1598       C  0.34931721  0.99566571  0.34709964    -0.13200
C1599       C  0.34967077  0.99602513  0.36103635     0.25600
C1600       C  0.65122472  0.99302110  0.36790866    -0.18600
C1601       C  0.65158007  0.99360922  0.38139688    -0.07000
C1602       C  0.35047795  0.99725059  0.38829056    -0.03100
C1603       C  0.38630330  0.68107713  0.38118949    -0.08400
C1604       C  0.38174556  0.99949625  0.36779022    -0.16100
H1605       H  0.34922225  0.61012719  0.29592990     0.12100
H1606       H  0.35608995  0.61303458  0.31937968     0.11400
H1607       H  0.66623182  0.04105817  0.32037131     0.11300
H1608       H  0.66041045  0.03902524  0.29691081     0.11800
H1609       H  0.62619893  0.99035972  0.36282871     0.11900
H1610       H  0.62669979  0.99153070  0.38635953     0.11900
H1611       H  0.41450676  0.69615005  0.38594247     0.12000
H1612       H  0.41292889  0.69494424  0.36238586     0.10800
C1613       C  0.35080215  0.99386788  0.72268079    -0.03000
C1614       C  0.64826828  0.97119714  0.71615399    -0.08700
C1615       C  0.64699004  0.97118661  0.70268495    -0.16400
C1616       C  0.34819498  0.99360765  0.69552438     0.25700
C1617       C  0.38450176  0.68312488  0.70181236    -0.18100
C1618       C  0.38562011  0.68319900  0.71527717    -0.07000
C1619       C  0.34705553  0.99254629  0.68161794    -0.13400
C1620       C  0.34653934  0.99156113  0.66998184    -0.13200
C1621       C  0.34669712  0.99096082  0.65606785     0.25600
C1622       C  0.38018872  0.66203161  0.64933054    -0.18600
C1623       C  0.38088335  0.66225015  0.63584634    -0.07000
C1624       C  0.34800921  0.99259391  0.62883421    -0.03100
C1625       C  0.64678319  0.98255469  0.63567240    -0.08400
C1626       C  0.64618051  0.98178603  0.64915636    -0.16100
H1627       H  0.62114510  0.95358136  0.72144380     0.12100
H1628       H  0.61910264  0.95345787  0.69785804     0.11400
H1629       H  0.41166651  0.69963576  0.69643561     0.11300
H1630       H  0.41381517  0.69965893  0.71999425     0.11800
H1631       H  0.40504685  0.66495384  0.65459813     0.11900
H1632       H  0.40639509  0.66522239  0.63105270     0.11900
H1633       H  0.62014686  0.97559151  0.63067625     0.12000
H1634       H  0.61936302  0.97439390  0.65419081     0.10800
C1635       C  0.34945680  0.99163597  0.96250302    -0.03000
C1636       C  0.65031863  0.63234784  0.96915089    -0.08700
C1637       C  0.64973587  0.63200867  0.98262460    -0.16400
C1638       C  0.34698191  0.66282988  0.98953111     0.25700
C1639       C  0.37834077  0.69395452  0.98285330    -0.18100
C1640       C  0.38359108  0.01648858  0.96961346    -0.07000
C1641       C  0.34583542  0.66258556  0.00343531    -0.13400
C1642       C  0.34390775  0.66183592  0.01505662    -0.13200
C1643       C  0.34076040  0.66050461  0.02892717     0.25600
C1644       C  0.35740966  0.64316413  0.03626979    -0.18600
C1645       C  0.34933511  0.96846999  0.05004270    -0.07000
C1646       C  0.33465518  0.98983378  0.05621330    -0.03100
C1647       C  0.65076447  0.67481501  0.04854363    -0.08400
C1648       C  0.65394549  0.67613695  0.03510735    -0.16100
H1649       H  0.62605069  0.60813818  0.96416316     0.12100
H1650       H  0.62526497  0.60772908  0.98766159     0.11400
H1651       H  0.40224500  0.71801090  0.98806598     0.11300
H1652       H  0.41102449  0.03633520  0.96477953     0.11800
H1653       H  0.37294620  0.63079847  0.03160902     0.11900
H1654       H  0.35852612  0.95139933  0.05551833     0.11900
H1655       H  0.63484998  0.68700650  0.05301376     0.12000
H1656       H  0.64067242  0.68938736  0.02954027     0.10800
N1657       N  0.73968455  0.07617302  0.89375159    -0.26900
N1658       N  0.71463714  0.06928820  0.88433016    -0.34800
C1659       C  0.73428146  0.09256361  0.87422266     0.01400
C1660       C  0.77392475  0.11404837  0.87720771     0.07400
C1661       C  0.77598373  0.10338560  0.88977596    -0.05700
H1662       H  0.72063330  0.09284317  0.86525286     0.08100
H1663       H  0.80221785  0.11385236  0.89550375     0.09300
Cu1664     Cu  0.99039595  0.02243847  0.88433739     0.44200
Cu1665     Cu  0.72422423  0.04738043  0.91144751     0.42000
Cu1666     Cu  0.96495776  0.28970721  0.91089670     0.43900
N1667       N  0.94388719  0.29923047  0.88367962    -0.34300
N1668       N  0.93687633  0.27409055  0.89317428    -0.28600
C1669       C  0.90997377  0.23761389  0.88929233    -0.04700
C1670       C  0.89957676  0.23953631  0.87669432     0.07600
C1671       C  0.92106173  0.27938751  0.87357415     0.01400
H1672       H  0.89937188  0.21133912  0.89513592     0.09000
H1673       H  0.92089332  0.29302408  0.86455100     0.08100
N1674       N  0.99619831  0.31438852  0.92772284    -0.35800
N1675       N  0.69896256  0.01369431  0.92792170    -0.27900
C1676       C  0.71050547  0.02310710  0.94022915    -0.03200
C1677       C  0.68108750  0.32826500  0.94819059     0.05400
C1678       C  0.98585496  0.30119068  0.93988379     0.03500
H1679       H  0.73605600  0.05056124  0.94316989     0.08600
H1680       H  0.95902260  0.27423843  0.94242629     0.07500
N1681       N  0.76333096  0.04956776  0.79202469    -0.26900
N1682       N  0.75622360  0.02464557  0.80160512    -0.34800
C1683       C  0.77858315  0.04461883  0.81174975     0.01400
C1684       C  0.79994465  0.08435890  0.80860898     0.07400
C1685       C  0.78998311  0.08615881  0.79592739    -0.05700
H1686       H  0.77886811  0.03102153  0.82076603     0.08100
H1687       H  0.80102278  0.11234030  0.79000395     0.09300
Cu1688     Cu  0.71127221  0.29824442  0.80167143     0.44200
Cu1689     Cu  0.73642751  0.03314233  0.77406181     0.42000
Cu1690     Cu  0.97948520  0.27003947  0.77382241     0.43900
N1691       N  0.98733329  0.25110648  0.80149425    -0.34300
N1692       N  0.96309725  0.24314689  0.79173634    -0.28600
C1693       C  0.92649646  0.21653093  0.79556736    -0.04700
C1694       C  0.92748446  0.20732910  0.80839010     0.07600
C1695       C  0.96686533  0.22898773  0.81169499     0.01400
H1696       H  0.90077230  0.20564786  0.78955123     0.09000
H1697       H  0.97980457  0.22967670  0.82091505     0.08100
N1698       N  0.00395847  0.30299543  0.75723670    -0.35800
N1699       N  0.70519776  0.00724452  0.75726545    -0.27900
C1700       C  0.71457083  0.02029880  0.74504342    -0.03200
C1701       C  0.68423523  0.32330254  0.73690057     0.05400
C1702       C  0.99157437  0.29306615  0.74503967     0.03500
H1703       H  0.74065000  0.04768241  0.74227375     0.08600
H1704       H  0.96590637  0.26537473  0.74236297     0.07500
N1705       N  0.94712269  0.32591415  0.45787458    -0.26900
N1706       N  0.96934865  0.33699837  0.46825146    -0.34800
C1707       C  0.94979984  0.34098235  0.47806972     0.01400
C1708       C  0.91260011  0.33083654  0.47392905     0.07400
C1709       C  0.91224694  0.32185987  0.46094296    -0.05700
H1710       H  0.96257565  0.35210477  0.48742238     0.08100
H1711       H  0.88888539  0.31419663  0.45411770     0.09300
Cu1712     Cu  0.69231596  0.34696904  0.46863283     0.44200
Cu1713     Cu  0.96917336  0.32223075  0.43996779     0.42000
Cu1714     Cu  0.74051959  0.34988394  0.43914307     0.43900
N1715       N  0.74711058  0.35319233  0.46793816    -0.34300
N1716       N  0.76618355  0.35655658  0.45717683    -0.28600
C1717       C  0.80090076  0.36033292  0.46015840    -0.04700
C1718       C  0.80383119  0.35892884  0.47351242     0.07600
C1719       C  0.76840176  0.35342677  0.47798485     0.01400
H1720       H  0.82166017  0.36233817  0.45304061     0.09000
H1721       H  0.75747159  0.34767601  0.48775703     0.08100
N1722       N  0.70518988  0.33808432  0.42293384    -0.35800
N1723       N  0.00120595  0.32804828  0.42322796    -0.27900
C1724       C  0.98804349  0.32391573  0.41105579    -0.03200
C1725       C  0.68500470  0.33163077  0.40259927     0.05400
C1726       C  0.71648875  0.34035949  0.41058347     0.03500
H1727       H  0.95855976  0.31633527  0.40861350     0.08600
H1728       H  0.74583012  0.34844083  0.40769900     0.07500
N1729       N  0.76401004  0.35563838  0.55947937    -0.26900
N1730       N  0.74518367  0.35216435  0.54867191    -0.34800
C1731       C  0.76697167  0.35306498  0.53866801     0.01400
C1732       C  0.80245524  0.35897420  0.54322638     0.07400
C1733       C  0.79904675  0.36003974  0.55658351    -0.05700
H1734       H  0.75639116  0.34749294  0.52887529     0.08100
H1735       H  0.81969715  0.36221375  0.56376803     0.09300
Cu1736     Cu  0.69029768  0.34537456  0.54812616     0.44200
Cu1737     Cu  0.73741775  0.34839787  0.57744442     0.42000
Cu1738     Cu  0.96803713  0.32499252  0.57751877     0.43900
N1739       N  0.96866911  0.33830910  0.54904564    -0.34300
N1740       N  0.94696946  0.32883381  0.55956135    -0.28600
C1741       C  0.91237752  0.32533017  0.55653487    -0.04700
C1742       C  0.91238394  0.33299960  0.54344009     0.07600
C1743       C  0.94914159  0.34205096  0.53918396     0.01400
H1744       H  0.88933063  0.31848790  0.56343181     0.09000
H1745       H  0.96158234  0.35187817  0.52967839     0.08100
N1746       N  0.99918177  0.32719606  0.59393503    -0.35800
N1747       N  0.70263290  0.33561720  0.59392590    -0.27900
C1748       C  0.71366224  0.33519444  0.60614798    -0.03200
C1749       C  0.68250087  0.32634436  0.61432655     0.05400
C1750       C  0.98604626  0.32144656  0.60615512     0.03500
H1751       H  0.74265938  0.34174263  0.60884201     0.08600
H1752       H  0.95687890  0.31446499  0.60883259     0.07500
N1753       N  0.66667851  0.25985697  0.12619663    -0.26900
N1754       N  0.65445474  0.27080897  0.13621227    -0.34800
C1755       C  0.64589790  0.24520635  0.14592238     0.01400
C1756       C  0.65554276  0.21762125  0.14223939     0.07400
C1757       C  0.66807243  0.22776274  0.12949371    -0.05700
H1758       H  0.63245168  0.24635188  0.15481095     0.08100
H1759       H  0.67681673  0.21260077  0.12293665     0.09300
Cu1760     Cu  0.65253215  0.32133251  0.13630537     0.44200
Cu1761     Cu  0.67406152  0.28647168  0.10824637     0.42000
Cu1762     Cu  0.64289753  0.02626639  0.10649460     0.43900
N1763       N  0.65478418  0.04020820  0.13476616    -0.34300
N1764       N  0.64376251  0.05079503  0.12430117    -0.28600
C1765       C  0.63667007  0.07950566  0.12745679    -0.04700
C1766       C  0.64367406  0.08708077  0.14058068     0.07600
C1767       C  0.65690017  0.06269570  0.14462919     0.01400
H1768       H  0.62690108  0.09354842  0.12072924     0.09000
H1769       H  0.66680182  0.06060242  0.15412641     0.08100
N1770       N  0.65548169  0.00246823  0.09061140    -0.35800
N1771       N  0.66709114  0.31047803  0.09126550    -0.27900
C1772       C  0.67282892  0.30190563  0.07925407    -0.03200
C1773       C  0.66417123  0.32297980  0.07052750     0.05400
C1774       C  0.65327532  0.01052917  0.07813925     0.03500
H1775       H  0.68237694  0.28150109  0.07711269     0.08600
H1776       H  0.64406492  0.03046950  0.07492112     0.07500
N1777       N  0.62556746  0.23371406  0.22717735    -0.26900
N1778       N  0.60849083  0.24059906  0.21745230    -0.34800
C1779       C  0.60450094  0.21681406  0.20763032     0.01400
C1780       C  0.62024056  0.19414342  0.21129812     0.07400
C1781       C  0.63273494  0.20527409  0.22383112    -0.05700
H1782       H  0.59180829  0.21662628  0.19840109     0.08100
H1783       H  0.64717543  0.19442566  0.22993086     0.09300
Cu1784     Cu  0.59567091  0.28520891  0.21753683     0.44200
Cu1785     Cu  0.64112213  0.26549668  0.24417431     0.42000
Cu1786     Cu  0.64349162  0.02229317  0.24368125     0.43900
N1787       N  0.60346705  0.00816181  0.21789518    -0.34300
N1788       N  0.62388480  0.03481931  0.22673920    -0.28600
C1789       C  0.62930606  0.06971118  0.22284616    -0.04700
C1790       C  0.61152900  0.06518367  0.21092624     0.07600
C1791       C  0.59397575  0.02503473  0.20843469     0.01400
H1792       H  0.64625268  0.09689339  0.22812442     0.09000
H1793       H  0.57547603  0.00862609  0.20045124     0.09600
N1794       N  0.65526249  0.33542585  0.25979507    -0.35800
N1795       N  0.65485726  0.30189904  0.26004834    -0.27900
C1796       C  0.66216096  0.29495529  0.27210961    -0.03200
C1797       C  0.66721523  0.32545655  0.27997839     0.05400
C1798       C  0.66388046  0.01536205  0.27201112     0.03500
H1799       H  0.66213878  0.26869361  0.27498482     0.08600
H1800       H  0.66610606  0.04286904  0.27453997     0.07500
C1801       C  0.65018278  0.18259687  0.14966511    -0.10500
C1802       C  0.64680804  0.15086895  0.14261422    -0.04300
C1803       C  0.63966611  0.11602053  0.14855090    -0.10500
C1804       C  0.63135499  0.11079743  0.16196360     0.10500
C1805       C  0.63574467  0.14262157  0.16940827    -0.02300
C1806       C  0.64742001  0.17933820  0.16335766     0.10300
C1807       C  0.65765728  0.21182558  0.17130302    -0.12300
C1808       C  0.64969884  0.20702681  0.18443714    -0.12300
C1809       C  0.63318425  0.16980146  0.19034497     0.10300
C1810       C  0.62904536  0.13790748  0.18299862    -0.02300
C1811       C  0.61886115  0.07470907  0.16819916    -0.12400
C1812       C  0.61603951  0.07128259  0.18150252    -0.12400
C1813       C  0.61950688  0.10187223  0.18922635     0.10500
C1814       C  0.61431599  0.09821595  0.20289280    -0.10500
C1815       C  0.61479113  0.12911984  0.20962429    -0.04300
C1816       C  0.62305937  0.16424624  0.20355609    -0.10500
H1817       H  0.67332141  0.24159778  0.16762341     0.07700
H1818       H  0.65811595  0.23320497  0.18999532     0.07700
H1819       H  0.61063330  0.04817353  0.16293705     0.07900
H1820       H  0.61080889  0.04399593  0.18530675     0.07900
H1821       H  0.65064931  0.15344921  0.13229617     0.04400
H1822       H  0.60841397  0.12570704  0.21985103     0.04400
C1823       C  0.87062887  0.20534137  0.86883778    -0.10500
C1824       C  0.83668777  0.17677469  0.87520793    -0.04300
C1825       C  0.80779957  0.14260387  0.86911556    -0.10500
C1826       C  0.81295692  0.13637225  0.85598572     0.10500
C1827       C  0.84724387  0.16485408  0.84926547    -0.02300
C1828       C  0.87624067  0.19936950  0.85571472     0.10300
C1829       C  0.91018878  0.22634057  0.84888939    -0.12300
C1830       C  0.91483158  0.22091839  0.83595993    -0.12300
C1831       C  0.88745700  0.18654228  0.82944449     0.10300
C1832       C  0.85296947  0.15832662  0.83613000    -0.02300
C1833       C  0.78539504  0.10221669  0.84942261    -0.12400
C1834       C  0.78971657  0.09718637  0.83644411    -0.12400
C1835       C  0.82372710  0.12406547  0.82963766     0.10500
C1836       C  0.82916339  0.11820702  0.81649472    -0.10500
C1837       C  0.86356822  0.14606972  0.81022731    -0.04300
C1838       C  0.89286621  0.17984329  0.81637941    -0.10500
H1839       H  0.93393037  0.25213309  0.85335773     0.07700
H1840       H  0.94012298  0.24466830  0.83122013     0.07700
H1841       H  0.75999807  0.07850053  0.85412614     0.07900
H1842       H  0.76570292  0.07171166  0.83193638     0.07900
H1843       H  0.83235820  0.18151679  0.88518867     0.04400
H1844       H  0.86794145  0.14093518  0.80029344     0.04400
C1845       C  0.83446826  0.35625424  0.48110948    -0.10500
C1846       C  0.85860683  0.34545435  0.47465969    -0.04300
C1847       C  0.88282592  0.33530192  0.48133849    -0.10500
C1848       C  0.87978968  0.33216351  0.49496550     0.10500
C1849       C  0.85889218  0.34672227  0.50166490    -0.02300
C1850       C  0.83817918  0.36105481  0.49470803     0.10300
C1851       C  0.82306226  0.38081974  0.50157897    -0.12300
C1852       C  0.82260848  0.38072751  0.51500737    -0.12300
C1853       C  0.83752656  0.36112170  0.52211826     0.10300
C1854       C  0.85862207  0.34683632  0.51538535    -0.02300
C1855       C  0.89579872  0.31362596  0.50208885    -0.12400
C1856       C  0.89548644  0.31371164  0.51547648    -0.12400
C1857       C  0.87937774  0.33255081  0.52231923     0.10500
C1858       C  0.88233933  0.33645423  0.53590233    -0.10500
C1859       C  0.85733809  0.01400750  0.54249339    -0.04300
C1860       C  0.83348187  0.35662864  0.53574624    -0.10500
H1861       H  0.81252073  0.39761723  0.49665032     0.07700
H1862       H  0.81165893  0.39735943  0.51974666     0.07700
H1863       H  0.90771036  0.29778903  0.49739374     0.07900
H1864       H  0.90702782  0.29778646  0.52039808     0.07900
H1865       H  0.85865709  0.34487636  0.46427517     0.04400
H1866       H  0.85756594  0.01415624  0.55287872     0.04400
C1867       C  0.67266310  0.32841912  0.29423005    -0.03000
C1868       C  0.68332536  0.96781289  0.30101206    -0.08700
C1869       C  0.68513487  0.30473119  0.31438322    -0.16400
C1870       C  0.67885840  0.33106220  0.32140481     0.25700
C1871       C  0.00361331  0.35660163  0.31482286    -0.18100
C1872       C  0.00064113  0.35539817  0.30136772    -0.07000
C1873       C  0.01402021  0.33148959  0.33533913    -0.13400
C1874       C  0.68173831  0.33168359  0.34699300    -0.13200
C1875       C  0.68262141  0.33175518  0.36093755     0.25600
C1876       C  0.98271918  0.32396367  0.36802261    -0.18600
C1877       C  0.98345392  0.32389690  0.38151153    -0.07000
C1878       C  0.68419162  0.33163378  0.38820890    -0.03100
C1879       C  0.71547168  0.00010827  0.38128860    -0.08400
C1880       C  0.71665153  0.33954624  0.36747882    -0.16100
H1881       H  0.68824568  0.94713589  0.29583309     0.12100
H1882       H  0.69367528  0.94935077  0.31933717     0.11400
H1883       H  0.99878916  0.37722807  0.32010325     0.11300
H1884       H  0.99331588  0.37509844  0.29662785     0.11800
H1885       H  0.95616285  0.31792309  0.36311667     0.11900
H1886       H  0.95723701  0.31781299  0.38662754     0.11900
H1887       H  0.74068581  0.00269614  0.38616907     0.12000
H1888       H  0.73976550  0.00175217  0.36263830     0.10800
C1889       C  0.68317505  0.32440373  0.72255626    -0.03000
C1890       C  0.98490062  0.29400051  0.71568266    -0.08700
C1891       C  0.98457228  0.29427840  0.70220972    -0.16400
C1892       C  0.68236995  0.32489990  0.69533951     0.25700
C1893       C  0.71726484  0.01645273  0.70194039    -0.18100
C1894       C  0.71856913  0.01671900  0.71541331    -0.07000
C1895       C  0.68236689  0.32450558  0.68142902    -0.13400
C1896       C  0.68215402  0.32382667  0.66979240    -0.13200
C1897       C  0.68172363  0.32326474  0.65588183     0.25600
C1898       C  0.71433555  0.00023423  0.64938422    -0.18600
C1899       C  0.71503210  0.00103175  0.63590354    -0.07000
C1900       C  0.68181239  0.32437367  0.62866815    -0.03100
C1901       C  0.98416408  0.32293530  0.63568499    -0.08400
C1902       C  0.98418875  0.32244064  0.64916165    -0.16100
H1903       H  0.96036391  0.26973037  0.72064778     0.12100
H1904       H  0.96007289  0.27037110  0.69715045     0.11400
H1905       H  0.74421746  0.03386225  0.69652743     0.11300
H1906       H  0.74667396  0.03421296  0.72011215     0.11800
H1907       H  0.74073453  0.00726620  0.65459985     0.11900
H1908       H  0.74217525  0.00871775  0.63109028     0.11900
H1909       H  0.96008769  0.32282038  0.63082444     0.12000
H1910       H  0.96022503  0.32175451  0.65434461     0.10800
C1911       C  0.68111683  0.32715849  0.96254108    -0.03000
C1912       C  0.98130965  0.96581614  0.96924830    -0.08700
C1913       C  0.98049281  0.96543396  0.98272414    -0.16400
C1914       C  0.68111731  0.99069151  0.98970397     0.25700
C1915       C  0.71606187  0.01603473  0.98310059    -0.18100
C1916       C  0.71328783  0.35633525  0.96957856    -0.07000
C1917       C  0.67978475  0.99093253  0.00360912    -0.13400
C1918       C  0.67777962  0.99100557  0.01522482    -0.13200
C1919       C  0.67464188  0.99078083  0.02909183     0.25600
C1920       C  0.68591926  0.96894827  0.03661804    -0.18600
C1921       C  0.68332331  0.30361088  0.04997729    -0.07000
C1922       C  0.66687701  0.32322530  0.05621691    -0.03100
C1923       C  0.98984121  0.01151876  0.04853396    -0.08400
C1924       C  0.99312621  0.01193764  0.03509957    -0.16100
H1925       H  0.95443504  0.94636735  0.96414869     0.12100
H1926       H  0.95324818  0.94565826  0.98769740     0.11400
H1927       H  0.74260235  0.03559861  0.98837284     0.11300
H1928       H  0.73892142  0.37966682  0.96473442     0.11800
H1929       H  0.69725926  0.95225031  0.03210953     0.11900
H1930       H  0.69408398  0.28781928  0.05541408     0.11900
H1931       H  0.97821102  0.02816679  0.05283381     0.12000
H1932       H  0.98402641  0.02876292  0.02939280     0.10800
N1933       N  0.73968446  0.40890634  0.89351650    -0.26900
N1934       N  0.71522879  0.40248015  0.88394546    -0.34800
C1935       C  0.73577168  0.42496308  0.87380809     0.01400
C1936       C  0.77533684  0.44542549  0.87694354     0.07400
C1937       C  0.77646505  0.43497571  0.88961740    -0.05700
H1938       H  0.72272472  0.42560988  0.86474954     0.08100
H1939       H  0.80231564  0.44500229  0.89551077     0.09300
Cu1940     Cu  0.99006991  0.35741060  0.88396943     0.44200
Cu1941     Cu  0.72254922  0.38125010  0.91134765     0.42000
Cu1942     Cu  0.96788360  0.62298259  0.91045640     0.43900
N1943       N  0.94528585  0.63106644  0.88324654    -0.34300
N1944       N  0.93938679  0.60624124  0.89274044    -0.28600
C1945       C  0.91279569  0.56948346  0.88895694    -0.04700
C1946       C  0.90147604  0.57094307  0.87643489     0.07600
C1947       C  0.92203528  0.61077679  0.87327825     0.01400
H1948       H  0.90289766  0.54337546  0.89482883     0.09000
H1949       H  0.92086295  0.62415415  0.86432208     0.08100
N1950       N  0.99790066  0.64901458  0.92743417    -0.35800
N1951       N  0.69650908  0.34837973  0.92787936    -0.27900
C1952       C  0.70855867  0.35777214  0.94013056    -0.03200
C1953       C  0.68178428  0.66435992  0.94793893     0.05400
C1954       C  0.98759977  0.63612075  0.93963048     0.03500
H1955       H  0.73489516  0.38474048  0.94290696     0.08600
H1956       H  0.96146326  0.60855408  0.94219155     0.07500
N1957       N  0.76233858  0.38135647  0.79186691    -0.26900
N1958       N  0.75610763  0.35676041  0.80146925    -0.34800
C1959       C  0.77925610  0.37711758  0.81142525     0.01400
C1960       C  0.80010122  0.41680302  0.80816625     0.07400
C1961       C  0.78911725  0.41812951  0.79558258    -0.05700
H1962       H  0.78020692  0.36384925  0.82043362     0.08100
H1963       H  0.79937882  0.44413158  0.78962433     0.09300
Cu1964     Cu  0.71039791  0.63263064  0.80136511     0.44200
Cu1965     Cu  0.73406949  0.36422842  0.77412332     0.42000
Cu1966     Cu  0.97822748  0.60822191  0.77372795     0.43900
N1967       N  0.98611101  0.58616368  0.80097697    -0.34300
N1968       N  0.96168826  0.57957822  0.79138016    -0.28600
C1969       C  0.92509069  0.55256578  0.79513492    -0.04700
C1970       C  0.92634217  0.54175480  0.80774055     0.07600
C1971       C  0.96578043  0.56282929  0.81097663     0.01400
H1972       H  0.89923693  0.54240875  0.78923274     0.09000
H1973       H  0.97880465  0.56234250  0.82005948     0.08100
N1974       N  0.00419931  0.64032139  0.75709404    -0.35800
N1975       N  0.70312675  0.33800128  0.75730304    -0.27900
C1976       C  0.71235631  0.35133303  0.74510733    -0.03200
C1977       C  0.68550716  0.65997425  0.73677189     0.05400
C1978       C  0.99091254  0.63150105  0.74494294     0.03500
H1979       H  0.73806422  0.37916362  0.74246792     0.08600
H1980       H  0.96345344  0.60554784  0.74226166     0.07500
N1981       N  0.94736422  0.65814566  0.45800769    -0.26900
N1982       N  0.96968415  0.66955134  0.46836739    -0.34800
C1983       C  0.95014342  0.67368441  0.47815605     0.01400
C1984       C  0.91285557  0.66325780  0.47402238     0.07400
C1985       C  0.91243346  0.65397208  0.46106913    -0.05700
H1986       H  0.96298205  0.68510932  0.48748011     0.08100
H1987       H  0.88901017  0.64609539  0.45425097     0.09300
Cu1988     Cu  0.69278415  0.67981724  0.46881098     0.44200
Cu1989     Cu  0.96925281  0.65447346  0.44006705     0.42000
Cu1990     Cu  0.74090392  0.68363625  0.43929787     0.43900
N1991       N  0.74780474  0.68654493  0.46805894    -0.34300
N1992       N  0.76682588  0.69005983  0.45727222    -0.28600
C1993       C  0.80153166  0.69369689  0.46019906    -0.04700
C1994       C  0.80451057  0.69210439  0.47354406     0.07600
C1995       C  0.76914503  0.68663944  0.47806611     0.01400
H1996       H  0.82223547  0.69569364  0.45305754     0.09000
H1997       H  0.75827183  0.68074143  0.48784534     0.08100
N1998       N  0.70557782  0.67145839  0.42306844    -0.35800
N1999       N  0.00135959  0.66056303  0.42331799    -0.27900
C2000       C  0.98810307  0.65558282  0.41112805    -0.03200
C2001       C  0.68528932  0.66372052  0.40274355     0.05400
C2002       C  0.71699176  0.67361067  0.41074064     0.03500
H2003       H  0.95849101  0.64738826  0.40858951     0.08600
H2004       H  0.74637217  0.68178519  0.40786160     0.07500
N2005       N  0.76518149  0.68956819  0.55951252    -0.26900
N2006       N  0.74646035  0.68660420  0.54872081    -0.34800
C2007       C  0.76820962  0.68760331  0.53868633     0.01400
C2008       C  0.80356192  0.69308240  0.54321766     0.07400
C2009       C  0.80011662  0.69383655  0.55657842    -0.05700
H2010       H  0.75763619  0.68231977  0.52889246     0.08100
H2011       H  0.82061283  0.69560282  0.56374992     0.09300
Cu2012     Cu  0.69176414  0.68029801  0.54817090     0.44200
Cu2013     Cu  0.73886406  0.68163818  0.57755458     0.42000
Cu2014     Cu  0.96973024  0.65908802  0.57746440     0.43900
N2015       N  0.97002640  0.67299695  0.54907288    -0.34300
N2016       N  0.94830082  0.66318154  0.55958856    -0.28600
C2017       C  0.91354300  0.65936075  0.55658295    -0.04700
C2018       C  0.91348430  0.66713335  0.54349545     0.07600
C2019       C  0.95035448  0.67660385  0.53922882     0.01400
H2020       H  0.89039255  0.65216111  0.56347673     0.09000
H2021       H  0.96270405  0.68650969  0.52971682     0.08100
N2022       N  0.00069181  0.66104034  0.59391426    -0.35800
N2023       N  0.70410597  0.66927634  0.59401271    -0.27900
C2024       C  0.71492565  0.66909885  0.60628807    -0.03200
C2025       C  0.68363769  0.66054975  0.61438058     0.05400
C2026       C  0.98734663  0.65554243  0.60609352     0.03500
H2027       H  0.74383250  0.67555041  0.60906626     0.08600
H2028       H  0.95821436  0.64889264  0.60865098     0.07500
N2029       N  0.66710711  0.59265733  0.12591204    -0.26900
N2030       N  0.65640160  0.60489919  0.13597738    -0.34800
C2031       C  0.64677469  0.57917204  0.14571243     0.01400
C2032       C  0.65411820  0.54997583  0.14199917     0.07400
C2033       C  0.66652703  0.55951714  0.12920772    -0.05700
H2034       H  0.63382672  0.58122078  0.15458677     0.08100
H2035       H  0.67354544  0.54311978  0.12258236     0.09300
Cu2036     Cu  0.65714818  0.65676316  0.13597742     0.44200
Cu2037     Cu  0.67422663  0.61892489  0.10789186     0.42000
Cu2038     Cu  0.64207532  0.35943383  0.10639679     0.43900
N2039       N  0.64756724  0.36994652  0.13483725    -0.34300
N2040       N  0.63899743  0.38183671  0.12413456    -0.28600
C2041       C  0.63161563  0.41048470  0.12707363    -0.04700
C2042       C  0.63588642  0.41669224  0.14031615     0.07600
C2043       C  0.64768592  0.39144365  0.14470224     0.01400
H2044       H  0.62391421  0.42568606  0.12009321     0.09000
H2045       H  0.65578060  0.38847305  0.15438907     0.08100
N2046       N  0.65500442  0.33589142  0.09059833    -0.35800
N2047       N  0.66748542  0.64356284  0.09099920    -0.27900
C2048       C  0.67305996  0.63519506  0.07893212    -0.03200
C2049       C  0.66485992  0.65688891  0.07033102     0.05400
C2050       C  0.65299033  0.34420650  0.07815359     0.03500
H2051       H  0.68214323  0.61450403  0.07664395     0.08600
H2052       H  0.64427067  0.36456769  0.07497253     0.07500
N2053       N  0.62184171  0.56418116  0.22716405    -0.26900
N2054       N  0.60624540  0.57262063  0.21736278    -0.34800
C2055       C  0.60202780  0.54915140  0.20742432     0.01400
C2056       C  0.61612483  0.52506018  0.21108195     0.07400
C2057       C  0.62786936  0.53503850  0.22373864    -0.05700
H2058       H  0.59023092  0.55008861  0.19813631     0.08100
H2059       H  0.64095518  0.52285370  0.22988881     0.09300
Cu2060     Cu  0.59572302  0.61870204  0.21749579     0.44200
Cu2061     Cu  0.63672050  0.59471236  0.24439705     0.42000
Cu2062     Cu  0.64222611  0.35666585  0.24326707     0.43900
N2063       N  0.60041589  0.33991718  0.21767455    -0.34300
N2064       N  0.62119563  0.36736370  0.22625901    -0.28600
C2065       C  0.62542213  0.40159402  0.22217561    -0.04700
C2066       C  0.60632476  0.39579103  0.21042923     0.07600
C2067       C  0.58950801  0.35555974  0.20821970     0.01400
H2068       H  0.64225581  0.42919768  0.22724286     0.09000
H2069       H  0.57012109  0.33798890  0.20059128     0.09600
N2070       N  0.65332009  0.66536071  0.26009873    -0.35800
N2071       N  0.65060323  0.63070646  0.26037672    -0.27900
C2072       C  0.65674535  0.62287092  0.27246953    -0.03200
C2073       C  0.66360030  0.65402884  0.28032285     0.05400
C2074       C  0.66267738  0.35062445  0.27174817     0.03500
H2075       H  0.65513770  0.59582148  0.27535004     0.08600
H2076       H  0.66370854  0.37756838  0.27427096     0.07500
C2077       C  0.64626458  0.51390922  0.14936815    -0.10500
C2078       C  0.64141049  0.48164927  0.14225685    -0.04300
C2079       C  0.63207347  0.44600684  0.14811743    -0.10500
C2080       C  0.62282652  0.44060008  0.16144412     0.10500
C2081       C  0.62895667  0.47287755  0.16898461    -0.02300
C2082       C  0.64273395  0.51021686  0.16305510     0.10300
C2083       C  0.65431069  0.54274428  0.17112470    -0.12300
C2084       C  0.64596510  0.53779865  0.18423757    -0.12300
C2085       C  0.62792592  0.50029850  0.19002537     0.10300
C2086       C  0.62223313  0.46801024  0.18256707    -0.02300
C2087       C  0.60784646  0.40384397  0.16749776    -0.12400
C2088       C  0.60488626  0.40000339  0.18079146    -0.12400
C2089       C  0.61126010  0.43140752  0.18868276     0.10500
C2090       C  0.60736101  0.42803295  0.20239474    -0.10500
C2091       C  0.60876057  0.45925368  0.20921376    -0.04300
C2092       C  0.61783190  0.49472860  0.20323540    -0.10500
H2093       H  0.67145768  0.57258947  0.16758426     0.07700
H2094       H  0.65551647  0.56403784  0.18989488     0.07700
H2095       H  0.59801524  0.37721422  0.16206063     0.07900
H2096       H  0.59675415  0.37172692  0.18441248     0.07900
H2097       H  0.64599831  0.48442547  0.13197578     0.04400
H2098       H  0.60283639  0.45594171  0.21946771     0.04400
C2099       C  0.87246629  0.53651018  0.86864881    -0.10500
C2100       C  0.83897011  0.50750888  0.87510912    -0.04300
C2101       C  0.80970014  0.47365413  0.86895274    -0.10500
C2102       C  0.81438802  0.46786067  0.85573788     0.10500
C2103       C  0.84821587  0.49674550  0.84893330    -0.02300
C2104       C  0.87733979  0.53115783  0.85539758     0.10300
C2105       C  0.91069544  0.55870038  0.84844403    -0.12300
C2106       C  0.91456868  0.55396030  0.83540726    -0.12300
C2107       C  0.88716515  0.51963431  0.82887919     0.10300
C2108       C  0.85331109  0.49081291  0.83567551    -0.02300
C2109       C  0.78673539  0.43378362  0.84915932    -0.12400
C2110       C  0.79052860  0.42920357  0.83610298    -0.12400
C2111       C  0.82410524  0.45652275  0.82918935     0.10500
C2112       C  0.82910583  0.45110916  0.81595332    -0.10500
C2113       C  0.86283798  0.47978355  0.80954032    -0.04300
C2114       C  0.89203382  0.51359824  0.81570672    -0.10500
H2115       H  0.93461254  0.58439433  0.85288938     0.07700
H2116       H  0.93938869  0.57812255  0.83060946     0.07700
H2117       H  0.76172740  0.40975487  0.85393159     0.07900
H2118       H  0.76637805  0.40379851  0.83161839     0.07900
H2119       H  0.83507198  0.51193117  0.88516023     0.04400
H2120       H  0.86689123  0.47523264  0.79951317     0.04400
C2121       C  0.83505341  0.68919547  0.48111374    -0.10500
C2122       C  0.85884373  0.67790693  0.47468415    -0.04300
C2123       C  0.88310008  0.66783800  0.48139393    -0.10500
C2124       C  0.88026348  0.66506317  0.49502868     0.10500
C2125       C  0.85954398  0.67988151  0.50168964    -0.02300
C2126       C  0.83895752  0.69428406  0.49469866     0.10300
C2127       C  0.82412051  0.71438709  0.50152339    -0.12300
C2128       C  0.82368040  0.71445960  0.51495049    -0.12300
C2129       C  0.83842741  0.69477256  0.52210266     0.10300
C2130       C  0.85938664  0.68026292  0.51540771    -0.02300
C2131       C  0.89638969  0.64672158  0.50220193    -0.12400
C2132       C  0.89631128  0.64719279  0.51558803    -0.12400
C2133       C  0.88019368  0.66610613  0.52237901     0.10500
C2134       C  0.88325517  0.67025780  0.53595133    -0.10500
C2135       C  0.85784257  0.34649833  0.54238835    -0.04300
C2136       C  0.83443367  0.69047558  0.53573565    -0.10500
H2137       H  0.81370899  0.73124293  0.49655666     0.07700
H2138       H  0.81293011  0.73131681  0.51965322     0.07700
H2139       H  0.90826157  0.63078449  0.49755006     0.07900
H2140       H  0.90804813  0.63151485  0.52055611     0.07900
H2141       H  0.85866088  0.67699703  0.46429933     0.04400
H2142       H  0.85788317  0.34640682  0.55277302     0.04400
C2143       C  0.66972523  0.65703822  0.29453538    -0.03000
C2144       C  0.68209504  0.30340629  0.30092954    -0.08700
C2145       C  0.68285269  0.63322551  0.31453620    -0.16400
C2146       C  0.67800217  0.66036032  0.32163732     0.25700
C2147       C  0.00298150  0.68626053  0.31516569    -0.18100
C2148       C  0.99897848  0.68471931  0.30174140    -0.07000
C2149       C  0.01407905  0.66111005  0.33554671    -0.13400
C2150       C  0.68212625  0.66147439  0.34719830    -0.13200
C2151       C  0.68298709  0.66179888  0.36114007     0.25600
C2152       C  0.98122974  0.64353112  0.36819777    -0.18600
C2153       C  0.98193018  0.64409622  0.38168763    -0.07000
C2154       C  0.68448742  0.66288694  0.38838506    -0.03100
C2155       C  0.71747634  0.33950377  0.38097096    -0.08400
C2156       C  0.71884970  0.68060525  0.36770191    -0.16100
H2157       H  0.68698184  0.28260672  0.29582087     0.12100
H2158       H  0.69204980  0.28493470  0.31931569     0.11400
H2159       H  0.99911774  0.70740729  0.32051565     0.11300
H2160       H  0.99187574  0.70469777  0.29707831     0.11800
H2161       H  0.95323988  0.62885727  0.36327212     0.11900
H2162       H  0.95428948  0.62953875  0.38683925     0.11900
H2163       H  0.74426685  0.34558148  0.38566699     0.12000
H2164       H  0.74261156  0.34563265  0.36214792     0.10800
C2165       C  0.68418907  0.66132341  0.72250251    -0.03000
C2166       C  0.98156627  0.64011552  0.71593018    -0.08700
C2167       C  0.98048841  0.64024230  0.70246214    -0.16400
C2168       C  0.68198742  0.66144632  0.69535975     0.25700
C2169       C  0.71365342  0.35566796  0.70204684    -0.18100
C2170       C  0.71407282  0.35548038  0.71553021    -0.07000
C2171       C  0.68110885  0.66036373  0.68146823    -0.13400
C2172       C  0.68092430  0.65933900  0.66984282    -0.13200
C2173       C  0.68118304  0.65849508  0.65594741     0.25600
C2174       C  0.71240879  0.32409799  0.64901439    -0.18600
C2175       C  0.71249247  0.32465626  0.63552976    -0.07000
C2176       C  0.68251920  0.65897361  0.62873646    -0.03100
C2177       C  0.98317172  0.65470658  0.63551596    -0.08400
C2178       C  0.98256551  0.65450995  0.64898545    -0.16100
H2179       H  0.95422553  0.62338763  0.72117748     0.12100
H2180       H  0.95253159  0.62348049  0.69759412     0.11400
H2181       H  0.73792518  0.37967983  0.69685426     0.11300
H2182       H  0.73890355  0.37950806  0.72038202     0.11800
H2183       H  0.73644833  0.32459503  0.65408187     0.11900
H2184       H  0.73666933  0.32535780  0.63052798     0.11900
H2185       H  0.95816278  0.65207356  0.63048651     0.12000
H2186       H  0.95730083  0.65164304  0.65397093     0.10800
C2187       C  0.68156602  0.66362148  0.96230518    -0.03000
C2188       C  0.98195349  0.29733996  0.96939518    -0.08700
C2189       C  0.98150970  0.29700014  0.98286660    -0.16400
C2190       C  0.68015604  0.32634746  0.98974900     0.25700
C2191       C  0.71276194  0.35591713  0.98305937    -0.18100
C2192       C  0.71234658  0.69437831  0.96936735    -0.07000
C2193       C  0.67901325  0.32635095  0.00364429    -0.13400
C2194       C  0.67689334  0.32587243  0.01525547    -0.13200
C2195       C  0.67346263  0.32492702  0.02910891     0.25600
C2196       C  0.68658761  0.30449902  0.03654917    -0.18600
C2197       C  0.68761057  0.64180250  0.04971217    -0.07000
C2198       C  0.66765772  0.65771543  0.05603528    -0.03100
C2199       C  0.98699674  0.34363769  0.04861901    -0.08400
C2200       C  0.99028781  0.34445786  0.03518906    -0.16100
H2201       H  0.95658384  0.27440156  0.96441761     0.12100
H2202       H  0.95605812  0.27395888  0.98791908     0.11400
H2203       H  0.73771233  0.37881492  0.98825863     0.11300
H2204       H  0.73701675  0.71891534  0.96454087     0.11800
H2205       H  0.69948284  0.28932688  0.03197378     0.11900
H2206       H  0.70121595  0.62864606  0.05511403     0.11900
H2207       H  0.97407838  0.35901219  0.05298412     0.12000
H2208       H  0.97999960  0.36038499  0.02954724     0.10800
N2209       N  0.73936063  0.74319311  0.89307854    -0.26900
N2210       N  0.71490553  0.73632266  0.88346898    -0.34800
C2211       C  0.73532102  0.75927763  0.87340011     0.01400
C2212       C  0.77485542  0.78028950  0.87660100     0.07400
C2213       C  0.77601496  0.76979340  0.88925513    -0.05700
H2214       H  0.72220558  0.75976785  0.86433906     0.08100
H2215       H  0.80182712  0.78008333  0.89518770     0.09300
Cu2216     Cu  0.99031393  0.68979728  0.88328896     0.44200
Cu2217     Cu  0.72276228  0.71606763  0.91094686     0.42000
Cu2218     Cu  0.96882138  0.95375319  0.91067315     0.43900
N2219       N  0.94613347  0.96356031  0.88372001    -0.34300
N2220       N  0.94029025  0.93801004  0.89295414    -0.28600
C2221       C  0.91374191  0.90155919  0.88889620    -0.04700
C2222       C  0.90246538  0.90404836  0.87645607     0.07600
C2223       C  0.92305104  0.94407670  0.87362903     0.01400
H2224       H  0.90366464  0.87499626  0.89454143     0.09000
H2225       H  0.92183157  0.95813707  0.86483960     0.08100
N2226       N  0.99927757  0.97906453  0.92764326    -0.35800
N2227       N  0.69725782  0.68390894  0.92758545    -0.27900
C2228       C  0.70864080  0.69423267  0.93984861    -0.03200
C2229       C  0.68332646  0.99299778  0.94816853     0.05400
C2230       C  0.98881629  0.96556182  0.93977731     0.03500
H2231       H  0.73417868  0.72193186  0.94259803     0.08600
H2232       H  0.96251193  0.93803336  0.94226973     0.07500
N2233       N  0.76439194  0.71509889  0.79159148    -0.26900
N2234       N  0.75639452  0.69067591  0.80138315    -0.34800
C2235       C  0.77874422  0.71102518  0.81148254     0.01400
C2236       C  0.80087688  0.75058739  0.80807939     0.07400
C2237       C  0.79142959  0.75176222  0.79529592    -0.05700
H2238       H  0.77839890  0.69781821  0.82065166     0.08100
H2239       H  0.80293475  0.77758975  0.78917601     0.09300
Cu2240     Cu  0.71178533  0.96598694  0.80143829     0.44200
Cu2241     Cu  0.73774481  0.69781485  0.77369565     0.42000
Cu2242     Cu  0.98056379  0.94000292  0.77382502     0.43900
N2243       N  0.98805442  0.91863556  0.80114477    -0.34300
N2244       N  0.96384871  0.91142851  0.79143821    -0.28600
C2245       C  0.92723822  0.88442288  0.79514391    -0.04700
C2246       C  0.92820658  0.87423455  0.80784557     0.07600
C2247       C  0.96756343  0.89567995  0.81119846     0.01400
H2248       H  0.90151863  0.87405408  0.78915937     0.09000
H2249       H  0.98038874  0.89582715  0.82039118     0.08100
N2250       N  0.00528447  0.97286419  0.75727058    -0.35800
N2251       N  0.70564040  0.67305097  0.75704062    -0.27900
C2252       C  0.71562688  0.68586031  0.74483266    -0.03200
C2253       C  0.68562373  0.99282430  0.73695499     0.05400
C2254       C  0.99240948  0.96316953  0.74511020     0.03500
H2255       H  0.74288444  0.71206950  0.74207105     0.08600
H2256       H  0.96620934  0.93592334  0.74240823     0.07500
N2257       N  0.94646186  0.99366181  0.45791620    -0.26900
N2258       N  0.96836211  0.00388591  0.46836080    -0.34800
C2259       C  0.94862686  0.00734367  0.47822608     0.01400
C2260       C  0.91158030  0.99761303  0.47404242     0.07400
C2261       C  0.91158425  0.98953739  0.46098907    -0.05700
H2262       H  0.96121584  0.01783575  0.48764178     0.08100
H2263       H  0.88845250  0.98238219  0.45412119     0.09300
Cu2264     Cu  0.69097100  0.01313422  0.46883726     0.44200
Cu2265     Cu  0.96853916  0.99083796  0.43991891     0.42000
Cu2266     Cu  0.73914097  0.01702645  0.43934185     0.43900
N2267       N  0.74560542  0.01917330  0.46811007    -0.34300
N2268       N  0.76474947  0.02289772  0.45733622    -0.28600
C2269       C  0.79944342  0.02656638  0.46028596    -0.04700
C2270       C  0.80226170  0.02478277  0.47363247     0.07600
C2271       C  0.76681011  0.01910742  0.47813020     0.01400
H2272       H  0.82031005  0.02887140  0.45315632     0.09000
H2273       H  0.75587925  0.01317575  0.48790295     0.08100
N2274       N  0.70421786  0.00546069  0.42304971    -0.35800
N2275       N  0.00046108  0.99606095  0.42321606    -0.27900
C2276       C  0.98749328  0.99153787  0.41100149    -0.03200
C2277       C  0.68434068  0.99821017  0.40267549     0.05400
C2278       C  0.71557970  0.00687391  0.41075596     0.03500
H2279       H  0.95810625  0.98402789  0.40843398     0.08600
H2280       H  0.74480803  0.01432590  0.40796600     0.07500
N2281       N  0.76390520  0.02381975  0.55959054    -0.26900
N2282       N  0.74501964  0.02037076  0.54879587    -0.34800
C2283       C  0.76656044  0.02084489  0.53878373     0.01400
C2284       C  0.80198962  0.02654988  0.54331648     0.07400
C2285       C  0.79877203  0.02787236  0.55666894    -0.05700
H2286       H  0.75583080  0.01516088  0.52900828     0.08100
H2287       H  0.81943621  0.03000645  0.56383986     0.09300
Cu2288     Cu  0.69045625  0.01431811  0.54820654     0.44200
Cu2289     Cu  0.73776902  0.01700696  0.57761748     0.42000
Cu2290     Cu  0.96807117  0.99257377  0.57752445     0.43900
N2291       N  0.96861443  0.00672342  0.54911471    -0.34300
N2292       N  0.94678910  0.99663758  0.55961515    -0.28600
C2293       C  0.91200233  0.99273457  0.55660763    -0.04700
C2294       C  0.91202696  0.00074329  0.54354089     0.07600
C2295       C  0.94895834  0.01040792  0.53928040     0.01400
H2296       H  0.88878821  0.98536979  0.56349169     0.09000
H2297       H  0.96134678  0.02049591  0.52978151     0.08100
N2298       N  0.99934073  0.99554253  0.59401996    -0.35800
N2299       N  0.70302555  0.00462850  0.59409164    -0.27900
C2300       C  0.71400240  0.00455615  0.60634808    -0.03200
C2301       C  0.68250769  0.99503698  0.61447312     0.05400
C2302       C  0.98596073  0.98955401  0.60621271     0.03500
H2303       H  0.74302097  0.01124907  0.60907288     0.08600
H2304       H  0.95661459  0.98217224  0.60880150     0.07500
N2305       N  0.66961902  0.92762593  0.12610476    -0.26900
N2306       N  0.65833847  0.93927909  0.13617218    -0.34800
C2307       C  0.64908446  0.91347337  0.14585897     0.01400
C2308       C  0.65740901  0.88496811  0.14211617     0.07400
C2309       C  0.66984616  0.89486776  0.12934395    -0.05700
H2310       H  0.63588330  0.91506959  0.15473880     0.08100
H2311       H  0.67753978  0.87902926  0.12270638     0.09300
Cu2312     Cu  0.65841873  0.99083642  0.13620255     0.44200
Cu2313     Cu  0.67638022  0.95417921  0.10819734     0.42000
Cu2314     Cu  0.64428572  0.69374771  0.10632740     0.43900
N2315       N  0.65395946  0.70636161  0.13462830    -0.34300
N2316       N  0.64417276  0.71774804  0.12407195    -0.28600
C2317       C  0.63717336  0.74654478  0.12716044    -0.04700
C2318       C  0.64289289  0.75330773  0.14035112     0.07600
C2319       C  0.65526660  0.72833816  0.14453104     0.01400
H2320       H  0.62831650  0.76116769  0.12033978     0.09000
H2321       H  0.66408051  0.72554465  0.15412805     0.08100
N2322       N  0.65598187  0.66946979  0.09045871    -0.35800
N2323       N  0.66827994  0.97762528  0.09129366    -0.27900
C2324       C  0.67426887  0.96918167  0.07930361    -0.03200
C2325       C  0.66509709  0.98973706  0.07053535     0.05400
C2326       C  0.65413623  0.67825214  0.07805542     0.03500
H2327       H  0.68457061  0.94935951  0.07722047     0.08600
H2328       H  0.64612850  0.69923479  0.07495660     0.07500
N2329       N  0.62452392  0.89880734  0.22720120    -0.26900
N2330       N  0.60877482  0.90699852  0.21738231    -0.34800
C2331       C  0.60488707  0.88356060  0.20745977     0.01400
C2332       C  0.61944154  0.85984412  0.21114422     0.07400
C2333       C  0.63103710  0.86996446  0.22380276    -0.05700
H2334       H  0.59310542  0.88434055  0.19815176     0.08100
H2335       H  0.64447099  0.85816822  0.22996505     0.09300
Cu2336     Cu  0.59781678  0.95296894  0.21750581     0.44200
Cu2337     Cu  0.63936096  0.92947845  0.24440464     0.42000
Cu2338     Cu  0.64333262  0.68870025  0.24344491     0.43900
N2339       N  0.60289560  0.67436466  0.21768670    -0.34300
N2340       N  0.62422546  0.70132586  0.22634401    -0.28600
C2341       C  0.62995067  0.73622239  0.22230400    -0.04700
C2342       C  0.61128154  0.73125172  0.21052067     0.07600
C2343       C  0.59313406  0.69099233  0.20823330     0.01400
H2344       H  0.64728540  0.76359970  0.22744956     0.09000
H2345       H  0.57374952  0.67423221  0.20045480     0.09600
N2346       N  0.65563755  0.99999937  0.26008964    -0.35800
N2347       N  0.65397219  0.96584427  0.26031707    -0.27900
C2348       C  0.66124928  0.95862942  0.27234643    -0.03200
C2349       C  0.66763944  0.98964669  0.28019496     0.05400
C2350       C  0.66117822  0.68044910  0.27207147     0.03500
H2351       H  0.66040730  0.93194448  0.27521793     0.08600
H2352       H  0.66432513  0.70838407  0.27457545     0.07500
C2353       C  0.65078461  0.84934793  0.14948923    -0.10500
C2354       C  0.64707192  0.81754185  0.14240001    -0.04300
C2355       C  0.63877311  0.78222554  0.14826844    -0.10500
C2356       C  0.62960941  0.77663959  0.16161278     0.10500
C2357       C  0.63451267  0.80854150  0.16911889    -0.02300
C2358       C  0.64726950  0.84563937  0.16316684     0.10300
C2359       C  0.65794884  0.87802585  0.17120835    -0.12300
C2360       C  0.64945115  0.87297681  0.18430391    -0.12300
C2361       C  0.63217064  0.83556641  0.19011136     0.10300
C2362       C  0.62755266  0.80360159  0.18268998    -0.02300
C2363       C  0.61588803  0.74013734  0.16772649    -0.12400
C2364       C  0.61280564  0.73640315  0.18102189    -0.12400
C2365       C  0.61750005  0.76732183  0.18884177     0.10500
C2366       C  0.61307527  0.76384469  0.20253072    -0.10500
C2367       C  0.61376274  0.79472528  0.20933217    -0.04300
C2368       C  0.62199632  0.82990349  0.20331996    -0.10500
H2369       H  0.67457116  0.90790223  0.16766215     0.07700
H2370       H  0.65835085  0.89912908  0.18993446     0.07700
H2371       H  0.60710476  0.71363446  0.16235395     0.07900
H2372       H  0.60622747  0.70846239  0.18477084     0.07900
H2373       H  0.65163717  0.82041799  0.13211640     0.04400
H2374       H  0.60770229  0.79127299  0.21957797     0.04400
C2375       C  0.87291130  0.87042293  0.86852962    -0.10500
C2376       C  0.83894029  0.84188924  0.87488747    -0.04300
C2377       C  0.80934943  0.80843210  0.86864989    -0.10500
C2378       C  0.81419413  0.80258950  0.85545800     0.10500
C2379       C  0.84847432  0.83106867  0.84874941    -0.02300
C2380       C  0.87782276  0.86519713  0.85527393     0.10300
C2381       C  0.91140545  0.89256679  0.84837716    -0.12300
C2382       C  0.91563236  0.88753437  0.83538123    -0.12300
C2383       C  0.88823557  0.85318068  0.82885507     0.10300
C2384       C  0.85385823  0.82488255  0.83554727    -0.02300
C2385       C  0.78628635  0.76881716  0.84880996    -0.12400
C2386       C  0.79027158  0.76420040  0.83578628    -0.12400
C2387       C  0.82444006  0.79082909  0.82901379     0.10500
C2388       C  0.82989691  0.78486843  0.81588181    -0.10500
C2389       C  0.86427203  0.81285257  0.80960144    -0.04300
C2390       C  0.89354568  0.84661492  0.81577509    -0.10500
H2391       H  0.93516724  0.91836077  0.85284386     0.07700
H2392       H  0.94069424  0.91148846  0.83061107     0.07700
H2393       H  0.76097300  0.74493456  0.85348233     0.07900
H2394       H  0.76585229  0.73922918  0.83123109     0.07900
H2395       H  0.83506664  0.84629946  0.88494243     0.04400
H2396       H  0.86872570  0.80783155  0.79966380     0.04400
C2397       C  0.83295137  0.02222210  0.48121864    -0.10500
C2398       C  0.85709047  0.01144392  0.47478137    -0.04300
C2399       C  0.88160587  0.00169134  0.48146799    -0.10500
C2400       C  0.87867083  0.99868785  0.49510024     0.10500
C2401       C  0.85774191  0.01324303  0.50177664    -0.02300
C2402       C  0.83683566  0.02731156  0.49479906     0.10300
C2403       C  0.82178334  0.04720721  0.50162251    -0.12300
C2404       C  0.82165081  0.04754782  0.51504590    -0.12300
C2405       C  0.83668862  0.02812399  0.52219728     0.10300
C2406       C  0.85769529  0.01369592  0.51549239    -0.02300
C2407       C  0.89485205  0.98037136  0.50225625    -0.12400
C2408       C  0.89482627  0.98084500  0.51564485    -0.12400
C2409       C  0.87865983  0.99969471  0.52244914     0.10500
C2410       C  0.88178885  0.00389157  0.53601989    -0.10500
C2411       C  0.85878417  0.68036962  0.54240517    -0.04300
C2412       C  0.83286269  0.02396452  0.53583444    -0.10500
H2413       H  0.81108143  0.06380969  0.49665677     0.07700
H2414       H  0.81087045  0.06438741  0.51974213     0.07700
H2415       H  0.90669240  0.96442948  0.49759070     0.07900
H2416       H  0.90666564  0.96524649  0.52060376     0.07900
H2417       H  0.85694271  0.01067784  0.46439980     0.04400
H2418       H  0.85895512  0.68044865  0.55278784     0.04400
C2419       C  0.67356657  0.99270093  0.29440390    -0.03000
C2420       C  0.67874927  0.63154477  0.30111598    -0.08700
C2421       C  0.68657702  0.96908462  0.31445735    -0.16400
C2422       C  0.68015513  0.99522076  0.32153845     0.25700
C2423       C  0.00448648  0.02059555  0.31503794    -0.18100
C2424       C  0.00131073  0.01944916  0.30159789    -0.07000
C2425       C  0.01526416  0.99549586  0.33545734    -0.13400
C2426       C  0.68257486  0.99561177  0.34711117    -0.13200
C2427       C  0.68293089  0.99597600  0.36104739     0.25600
C2428       C  0.98464896  0.99312597  0.36790481    -0.18600
C2429       C  0.98499689  0.99370414  0.38139292    -0.07000
C2430       C  0.68375056  0.99721757  0.38830063    -0.03100
C2431       C  0.71963089  0.68110295  0.38119268    -0.08400
C2432       C  0.71501957  0.99947571  0.36779986    -0.16100
H2433       H  0.68259541  0.61017236  0.29593257     0.12100
H2434       H  0.68945990  0.61308021  0.31938259     0.11400
H2435       H  0.99938141  0.04093990  0.32037637     0.11300
H2436       H  0.99352447  0.03888411  0.29691606     0.11800
H2437       H  0.95964537  0.99051257  0.36282379     0.11900
H2438       H  0.96013472  0.99166853  0.38635471     0.11900
H2439       H  0.74783168  0.69618896  0.38594765     0.12000
H2440       H  0.74626696  0.69500889  0.36239069     0.10800
C2441       C  0.68411855  0.99381649  0.72267957    -0.03000
C2442       C  0.98158758  0.97120388  0.71615738    -0.08700
C2443       C  0.98029714  0.97118550  0.70268829    -0.16400
C2444       C  0.68151204  0.99355957  0.69552295     0.25700
C2445       C  0.71782656  0.68310212  0.70181719    -0.18100
C2446       C  0.71894655  0.68316513  0.71528178    -0.07000
C2447       C  0.68037526  0.99250915  0.68161632    -0.13400
C2448       C  0.67986792  0.99153869  0.66997999    -0.13200
C2449       C  0.68003740  0.99095549  0.65606575     0.25600
C2450       C  0.71353991  0.66209149  0.64933609    -0.18600
C2451       C  0.71424238  0.66232269  0.63585187    -0.07000
C2452       C  0.68136405  0.99260711  0.62883194    -0.03100
C2453       C  0.98008320  0.98253462  0.63566910    -0.08400
C2454       C  0.97947299  0.98176153  0.64915320    -0.16100
H2455       H  0.95447023  0.95358255  0.72144983     0.12100
H2456       H  0.95240726  0.95344639  0.69786416     0.11400
H2457       H  0.74499041  0.69961941  0.69644049     0.11300
H2458       H  0.74714123  0.69962279  0.71999869     0.11800
H2459       H  0.73839029  0.66499979  0.65460426     0.11900
H2460       H  0.73975362  0.66529036  0.63105869     0.11900
H2461       H  0.95344821  0.97556789  0.63067136     0.12000
H2462       H  0.95265096  0.97436272  0.65418607     0.10800
C2463       C  0.68281154  0.99165082  0.96250118    -0.03000
C2464       C  0.98402489  0.63202398  0.96915877    -0.08700
C2465       C  0.98345146  0.63169176  0.98263284    -0.16400
C2466       C  0.68031853  0.66282341  0.98952805     0.25700
C2467       C  0.71168010  0.69395227  0.98285236    -0.18100
C2468       C  0.71691721  0.01658583  0.96961238    -0.07000
C2469       C  0.67917104  0.66256520  0.00343228    -0.13400
C2470       C  0.67723825  0.66180508  0.01505352    -0.13200
C2471       C  0.67407358  0.66046906  0.02892361     0.25600
C2472       C  0.69082405  0.64324267  0.03627325    -0.18600
C2473       C  0.68265926  0.96846248  0.05004204    -0.07000
C2474       C  0.66806092  0.98989510  0.05621543    -0.03100
C2475       C  0.98441400  0.67516493  0.04855421    -0.08400
C2476       C  0.98759999  0.67649080  0.03511768    -0.16100
H2477       H  0.96001927  0.60754525  0.96417542     0.12100
H2478       H  0.95923542  0.60716467  0.98767329     0.11400
H2479       H  0.73558349  0.71800318  0.98806664     0.11300
H2480       H  0.74433152  0.03649633  0.96477972     0.11800
H2481       H  0.70645626  0.63097070  0.03161837     0.11900
H2482       H  0.69179064  0.95133873  0.05551564     0.11900
H2483       H  0.96872726  0.68759883  0.05302632     0.12000
H2484       H  0.97455426  0.68997899  0.02955503     0.10800
loop_ 
_geom_bond_atom_site_label_1 
_geom_bond_atom_site_label_2 
_geom_bond_distance 
_geom_bond_site_symmetry_2 
_ccdc_geom_bond_type 
N1            N2   1.322       .  A
N1            C5   1.343       .  A
N1           Cu9   2.077       .  S
N2            C3   1.345       .  A
N2        Cu1664   2.073   1_455  S
C3            C4   1.387       .  A
C3            H6   1.082       .  S
C4            C5   1.386       .  A
C4          C169   1.489       .  S
C5            H7   1.082       .  S
Cu8         N830   2.073       .  S
Cu8         N563   2.074   1_545  S
Cu9          N19   2.077       .  S
Cu10         N12   2.078       .  S
Cu10         N18   2.078       .  S
N11          N12   1.322       .  A
N11          C15   1.347       .  A
N11        Cu284   2.077       .  S
N12          C13   1.343       .  A
C13          C14   1.387       .  A
C13          H16   1.082       .  S
C14          C15   1.389       .  A
C14         C167   1.492       .  S
C15          H17   1.082       .  S
N18        N1123   1.320       .  A
N18          C22   1.346       .  A
N19        N2226   1.321   1_445  A
N19          C20   1.347       .  A
C20         C573   1.389   1_545  A
C20          H23   1.082       .  S
C21         C296   1.390       .  A
C21        C1678   1.391   1_455  A
C21         C255   1.492       .  S
C22         C849   1.391       .  A
C22          H24   1.081       .  S
N25          N26   1.322       .  A
N25          C29   1.344       .  A
N25         Cu33   2.085       .  S
N26          C27   1.345       .  A
N26        Cu584   2.069   1_545  S
C27          C28   1.386       .  A
C27          H30   1.082       .  S
C28          C29   1.388       .  A
C28         C180   1.490       .  S
C29          H31   1.082       .  S
Cu32        N302   2.069       .  S
Cu32       N1691   2.068   1_455  S
Cu33         N43   2.084       .  S
Cu34         N36   2.071       .  S
Cu34         N42   2.070       .  S
N35          N36   1.321       .  A
N35          C39   1.345       .  A
N35        Cu860   2.068       .  S
N36          C37   1.341       .  A
C37          C38   1.386       .  A
C37          H40   1.082       .  S
C38          C39   1.386       .  A
C38         C182   1.487       .  S
C39          H41   1.081       .  S
N42        N1147   1.320       .  A
N42          C46   1.345       .  A
N43        N2250   1.320   1_545  A
N43          C44   1.347       .  A
C44         C597   1.389   1_545  A
C44          H47   1.081       .  S
C45         C320   1.392       .  A
C45        C1702   1.390   1_455  A
C45         C233   1.492       .  S
C46         C873   1.390       .  A
C46          H48   1.081       .  S
N49          N50   1.319       .  A
N49          C53   1.350       .  A
N49         Cu57   2.095       .  S
N50          C51   1.342       .  A
N50        Cu884   2.065       .  S
C51          C52   1.387       .  A
C51          H54   1.082       .  S
C52          C53   1.396       .  A
C52         C191   1.499       .  S
C53          H55   1.082       .  S
Cu56         N59   2.066       .  S
Cu56       N1706   2.065   1_455  S
Cu57         N67   2.097       .  S
Cu58         N60   2.086       .  S
Cu58         N66   2.088       .  S
N59          N60   1.319       .  A
N59          C63   1.342       .  A
N60          C61   1.347       .  A
C61          C62   1.396       .  A
C61          H64   1.081       .  S
C62          C63   1.390       .  A
C62         C189   1.502       .  S
C63          H65   1.081       .  S
N66        N1723   1.324       .  A
N66          C70   1.347       .  A
N67         N894   1.324       .  A
N67          C68   1.347       .  A
C68         C897   1.391       .  A
C68          H71   1.081       .  S
C69          C70   1.390       .  A
C69        C1724   1.391   1_455  A
C69         C222   1.496       .  S
C70          H72   1.081       .  S
N73          N74   1.318       .  A
N73          C77   1.347       .  A
N73         Cu81   2.090       .  S
N74          C75   1.342       .  A
N74         Cu80   2.059       .  S
C75          C76   1.390       .  A
C75          H78   1.081       .  S
C76          C77   1.398       .  A
C76         C204   1.503       .  S
C77          H79   1.081       .  S
Cu80       N1739   2.059   1_455  S
Cu81         N91   2.091       .  S
Cu82         N84   2.083       .  S
Cu82         N90   2.084       .  S
N83          N84   1.320       .  A
N83          C87   1.339       .  A
N83        Cu908   2.059       .  S
N84          C85   1.348       .  A
C85          C86   1.393       .  A
C85          H88   1.081       .  S
C86          C87   1.386       .  A
C86         C202   1.494       .  S
C87          H89   1.081       .  S
N90         N919   1.323       .  A
N90          C94   1.346       .  A
N91        N1746   1.323   1_455  A
N91          C92   1.347       .  A
C92          C93   1.390       .  A
C92          H95   1.081       .  S
C93        C1750   1.389   1_455  A
C93         C244   1.491       .  S
C94         C921   1.389       .  A
C94          H96   1.081       .  S
N97          N98   1.316       .  A
N97         C101   1.345   1_655  A
N97        Cu105   2.083   1_655  S
N98          C99   1.340       .  A
N98        Cu104   2.044       .  S
C99         C100   1.389       .  A
C99         H102   1.080       .  S
C100        C101   1.397   1_655  A
C100        C145   1.500       .  S
C101        H103   1.080       .  S
Cu104       N383   2.041       .  S
Cu105       N115   2.086       .  S
Cu106       N108   2.087       .  S
Cu106       N114   2.090       .  S
N107        N108   1.318       .  A
N107        C111   1.336       .  A
N107       Cu656   2.041   1_545  S
N108        C109   1.349       .  A
C109        C110   1.395       .  A
C109        H112   1.082       .  S
C110        C111   1.383       .  A
C110        C147   1.492       .  S
C111        H113   1.081   1_655  S
N114        N667   1.324   1_645  A
N114        C118   1.347       .  A
N115        N390   1.324   1_455  A
N115        C116   1.345       .  A
C116        C117   1.389   1_455  A
C116        H119   1.081       .  S
C117        C394   1.389       .  A
C117        C266   1.491   1_655  S
C118        C669   1.390   1_545  A
C118        H120   1.081       .  S
N121        N122   1.322       .  A
N121        C125   1.345       .  A
N121       Cu129   2.075       .  S
N122        C123   1.346       .  A
N122       Cu128   2.079       .  S
C123        C124   1.387       .  A
C123        H126   1.082       .  S
C124        C125   1.384       .  A
C124        C160   1.487       .  S
C125        H127   1.082       .  S
Cu128       N407   2.077       .  S
Cu129       N139   2.076       .  S
Cu130       N132   2.085       .  S
Cu130       N690   2.085       .  S
N131        N132   1.320       .  A
N131        C135   1.346       .  A
N131       Cu680   2.081   1_545  S
N132        C133   1.345       .  A
C133        C134   1.392       .  A
C133        H136   1.082       .  S
C134        C135   1.393       .  A
C134        C158   1.504       .  S
C135        H137   1.079       .  S
N138        N139   1.321       .  A
N138        C418   1.348       .  A
N138       Cu406   2.089       .  S
N139        C140   1.345       .  A
C140        C141   1.389   1_655  A
C140        H143   1.081       .  S
C141        C418   1.392   1_455  A
C141        C211   1.493       .  S
C142        N690   1.347       .  A
C142        C693   1.391   1_645  A
C142        H144   1.081       .  S
C145        C146   1.404       .  A
C145        C150   1.427       .  A
C146        C147   1.398       .  A
C146        H165   1.080       .  S
C147        C148   1.422       .  A
C148        C149   1.415       .  A
C148        C155   1.403       .  A
C149        C150   1.421       .  A
C149        C154   1.430       .  A
C150        C151   1.405       .  A
C151        C152   1.391       .  A
C151        H161   1.078   1_655  S
C152        C153   1.405       .  A
C152        H162   1.081       .  S
C153        C154   1.415       .  A
C153        C160   1.414       .  A
C154        C157   1.426       .  A
C155        C156   1.387       .  A
C155        H163   1.078       .  S
C156        C157   1.404       .  A
C156        H164   1.064       .  S
C157        C158   1.431       .  A
C158        C159   1.405       .  A
C159        C160   1.401       .  A
C159        H166   1.084       .  S
C167        C168   1.398       .  A
C167        C172   1.423       .  A
C168        C169   1.398       .  A
C168        H187   1.085       .  S
C169        C170   1.421       .  A
C170        C171   1.422       .  A
C170        C177   1.405       .  A
C171        C172   1.424       .  A
C171        C176   1.431       .  A
C172        C173   1.403       .  A
C173        C174   1.389       .  A
C173        H183   1.076       .  S
C174        C175   1.405       .  A
C174        H184   1.076       .  S
C175        C176   1.422       .  A
C175        C182   1.422       .  A
C176        C179   1.424       .  A
C177        C178   1.388       .  A
C177        H185   1.075       .  S
C178        C179   1.403       .  A
C178        H186   1.076       .  S
C179        C180   1.422       .  A
C180        C181   1.395       .  A
C181        C182   1.398       .  A
C181        H188   1.085       .  S
C189        C190   1.409       .  A
C189        C194   1.424       .  A
C190        C191   1.404       .  A
C190        H209   1.079       .  S
C191        C192   1.421       .  A
C192        C193   1.418       .  A
C192        C199   1.405       .  A
C193        C194   1.416       .  A
C193        C198   1.426       .  A
C194        C195   1.407       .  A
C195        C196   1.395       .  A
C195        H205   1.081       .  S
C196        C197   1.405       .  A
C196        H206   1.081       .  S
C197        C198   1.418       .  A
C197        C204   1.425       .  A
C198        C201   1.415       .  A
C199        C200   1.391       .  A
C199        H207   1.081       .  S
C200        C201   1.406       .  A
C200        H208   1.081       .  S
C201        C202   1.419       .  A
C202        C479   1.403       .  A
C203        C754   1.403       .  A
C203        C756   1.407       .  A
C203        H210   1.079       .  S
C204        C479   1.406       .  A
C211        C488   1.410       .  A
C211       C1872   1.409       .  A
C212        C763   1.409       .  A
C212        C765   1.402       .  A
C212        H225   1.082       .  S
C213        C214   1.401       .  A
C213        C488   1.402       .  A
C213        H502   1.083       .  S
C214       C1871   1.401       .  A
C214       C1873   1.449       .  S
C215        C216   1.402       .  A
C215       C1042   1.401       .  A
C215        H227   1.083       .  S
C216       C1039   1.409       .  A
C216        H228   1.081       .  S
C217       C1042   1.449       .  S
C217       C1046   1.212       .  T
C218        C219   1.449       .  S
C218       C1873   1.212       .  T
C219        C224   1.400       .  A
C219       C1876   1.400   1_455  A
C220        C221   1.402       .  A
C220       C1047   1.400       .  A
C220        H229   1.083       .  S
C221       C1050   1.410       .  A
C221        H230   1.081       .  S
C222       C1877   1.410   1_455  A
C222        C499   1.410       .  A
C223        C774   1.410   1_545  A
C223        C776   1.402   1_545  A
C223        H231   1.081       .  S
C224        C499   1.402       .  A
C224        H508   1.083       .  S
H226        C765   1.083       .  S
H232        C776   1.083   1_545  S
C233       C1890   1.410   1_455  A
C233        C514   1.409       .  A
C234        C235   1.400       .  A
C234       C1061   1.410       .  A
C234        H247   1.081       .  S
C235       C1064   1.399       .  A
C235        H248   1.083       .  S
C236       C1891   1.399   1_455  A
C236        C513   1.400       .  A
C236        C239   1.446       .  S
C237        C238   1.401       .  A
C237        C788   1.401   1_545  A
C237        H249   1.083       .  S
C238        C785   1.407   1_545  A
C238        H250   1.082       .  S
C239        C240   1.210       .  T
C240        C241   1.446       .  S
C241        C518   1.400       .  A
C241       C1902   1.400   1_455  A
C242        C243   1.401       .  A
C242        C793   1.400   1_545  A
C242        H251   1.083       .  S
C243        C796   1.409   1_545  A
C243        H252   1.081       .  S
C244        C519   1.409       .  A
C244       C1901   1.409   1_455  A
C245        C246   1.400       .  A
C245       C1072   1.409       .  A
C245        H253   1.081       .  S
C246       C1069   1.400       .  A
C246        H254   1.083       .  S
C255        C260   1.410       .  A
C255       C2188   1.409   1_455  A
C256        C257   1.400       .  A
C256       C1635   1.408       .  A
C256        H269   1.082       .  S
C257       C1086   1.400       .  A
C257        H270   1.083       .  S
C258        C259   1.401   1_565  A
C258       C1913   1.400   1_455  A
C258        C261   1.446   1_556  S
C259        C812   1.402       .  A
C259        H271   1.083       .  S
C260        C535   1.401       .  A
C260        H272   1.081       .  S
C261        C262   1.210       .  T
C262        C263   1.446       .  S
C263        C264   1.399       .  A
C263       C1924   1.400   1_465  A
C264        C817   1.400       .  A
C264        H273   1.083       .  S
C265        C266   1.409       .  A
C265        C540   1.400       .  A
C265        H274   1.081       .  S
C266       C2199   1.409   1_455  A
C267        C268   1.401       .  A
C267       C1646   1.409   1_545  A
C267        H275   1.081       .  S
C268       C1091   1.400   1_545  A
C268        H276   1.083       .  S
N277        N278   1.322       .  A
N277        C281   1.344       .  A
N277       Cu285   2.075       .  S
N278        C279   1.345       .  A
N278      Cu1940   2.076   1_455  S
C279        C280   1.387       .  A
C279        H282   1.082       .  S
C280        C281   1.386       .  A
C280        C445   1.490       .  S
C281        H283   1.082       .  S
Cu284      N1106   2.076       .  S
Cu285       N295   2.074       .  S
Cu286       N288   2.085       .  S
Cu286       N294   2.085       .  S
N287        N288   1.322       .  A
N287        C291   1.347       .  A
N287       Cu560   2.077       .  S
N288        C289   1.344       .  A
C289        C290   1.388       .  A
C289        H292   1.082       .  S
C290        C291   1.389       .  A
C290        C443   1.494       .  S
C291        H293   1.082       .  S
N294       N1399   1.319       .  A
N294        C298   1.346       .  A
N295       N1674   1.320   1_455  A
N295        C296   1.345       .  A
C296        H299   1.081       .  S
C297        C572   1.390       .  A
C297       C1954   1.392   1_455  A
C297        C531   1.493       .  S
C298       C1125   1.392       .  A
C298        H300   1.081       .  S
N301        N302   1.322       .  A
N301        C305   1.344       .  A
N301       Cu309   2.085       .  S
N302        C303   1.345       .  A
C303        C304   1.386       .  A
C303        H306   1.082       .  S
C304        C305   1.388       .  A
C304        C456   1.491       .  S
C305        H307   1.082       .  S
Cu308       N578   2.070       .  S
Cu308      N1967   2.070   1_455  S
Cu309       N319   2.085       .  S
Cu310       N312   2.072       .  S
Cu310       N318   2.072       .  S
N311        N312   1.322       .  A
N311        C315   1.344       .  A
N311      Cu1136   2.070       .  S
N312        C313   1.343       .  A
C313        C314   1.385       .  A
C313        H316   1.082       .  S
C314        C315   1.386       .  A
C314        C458   1.486       .  S
C315        H317   1.082       .  S
N318       N1423   1.320       .  A
N318        C322   1.345       .  A
N319       N1698   1.320       .  A
N319        C320   1.346       .  A
C320        H323   1.081       .  S
C321        C596   1.388       .  A
C321       C1978   1.388   1_455  A
C321        C509   1.485       .  S
C322       C1149   1.388       .  A
C322        H324   1.082       .  S
N325        N326   1.320       .  A
N325        C329   1.350       .  A
N325       Cu333   2.095       .  S
N326        C327   1.342       .  A
N326      Cu1160   2.066       .  S
C327        C328   1.388       .  A
C327        H330   1.082       .  S
C328        C329   1.395       .  A
C328        C467   1.499       .  S
C329        H331   1.081       .  S
Cu332      N1982   2.066   1_455  S
Cu332       N335   2.066       .  S
Cu333       N343   2.097       .  S
Cu334       N336   2.086       .  S
Cu334       N342   2.088       .  S
N335        N336   1.319       .  A
N335        C339   1.341       .  A
N336        C337   1.348       .  A
C337        C338   1.396       .  A
C337        H340   1.081       .  S
C338        C339   1.390       .  A
C338        C465   1.501       .  S
C339        H341   1.081       .  S
N342       N1999   1.324       .  A
N342        C346   1.347       .  A
N343       N1170   1.324       .  A
N343        C344   1.348       .  A
C344       C1173   1.390       .  A
C344        H347   1.081       .  S
C345       C2000   1.390   1_455  A
C345        C346   1.388       .  A
C345        C498   1.493       .  S
C346        H348   1.081       .  S
N349        N350   1.318       .  A
N349        C353   1.346       .  A
N349       Cu357   2.089       .  S
N350        C351   1.343       .  A
N350       Cu356   2.060       .  S
C351        C352   1.391       .  A
C351        H354   1.080       .  S
C352        C353   1.397       .  A
C352        C480   1.503       .  S
C353        H355   1.080       .  S
Cu356      N2015   2.059   1_455  S
Cu357       N367   2.090       .  S
Cu358       N360   2.084       .  S
Cu358       N366   2.085       .  S
N359        N360   1.320       .  A
N359        C363   1.340       .  A
N359      Cu1184   2.059       .  S
N360        C361   1.348       .  A
C361        C362   1.393       .  A
C361        H364   1.082       .  S
C362        C363   1.386       .  A
C362        C478   1.494       .  S
C363        H365   1.081       .  S
N366       N1195   1.323       .  A
N366        C370   1.345       .  A
N367       N2022   1.323       .  A
N367        C368   1.347       .  A
C368        C369   1.391       .  A
C368        H371   1.081       .  S
C369       C2026   1.389   1_455  A
C369        C520   1.492       .  S
C370       C1197   1.389       .  A
C370        H372   1.081       .  S
N373        N374   1.315   1_455  A
N373        C377   1.345   1_455  A
N373       Cu381   2.085       .  S
N374        C375   1.340       .  A
N374       Cu380   2.041       .  S
C375        C376   1.389       .  A
C375        H378   1.080       .  S
C376        C377   1.398       .  A
C376        C421   1.502       .  S
C377        H379   1.080   1_655  S
Cu380       N659   2.039       .  S
Cu381       N391   2.088       .  S
Cu382       N384   2.081       .  S
Cu382       N390   2.084       .  S
N383        N384   1.318       .  A
N383        C387   1.335       .  A
N384        C385   1.348       .  A
C385        C386   1.394       .  A
C385        H388   1.082       .  S
C386        C387   1.383       .  A
C386        C423   1.491       .  S
C387        H389   1.081       .  S
N390        C394   1.346       .  A
N391        N666   1.324   1_455  A
N391        C392   1.346       .  A
C392        C393   1.389   1_455  A
C392        H395   1.081       .  S
C393        C670   1.387       .  A
C393        C542   1.489   1_655  S
C394        H396   1.081       .  S
N397        N398   1.321       .  A
N397        C401   1.345       .  A
N397       Cu405   2.074       .  S
N398        C399   1.345       .  A
N398       Cu404   2.075       .  S
C399        C400   1.387       .  A
C399        H402   1.082       .  S
C400        C401   1.385       .  A
C400        C436   1.487       .  S
C401        H403   1.082       .  S
Cu404       N683   2.073       .  S
Cu405       N415   2.075       .  S
Cu406       N408   2.089       .  S
N407        N408   1.320       .  A
N407        C411   1.346       .  A
N408        C409   1.344       .  A
C409        C410   1.394       .  A
C409        H412   1.082       .  S
C410        C411   1.394       .  A
C410        C434   1.506       .  S
C411        H413   1.076       .  S
N414        N415   1.321       .  A
N414        C694   1.348       .  A
N414       Cu682   2.091       .  S
N415        C416   1.345       .  A
C416        C417   1.388       .  A
C416        H419   1.081       .  S
C417        C694   1.392       .  A
C417        C487   1.492   1_655  S
C418        H420   1.081       .  S
C421        C422   1.404       .  A
C421        C426   1.429       .  A
C422        C423   1.398       .  A
C422        H441   1.079       .  S
C423        C424   1.419       .  A
C424        C425   1.413       .  A
C424        C431   1.402       .  A
C425        C426   1.422       .  A
C425        C430   1.430       .  A
C426        C427   1.405       .  A
C427        C428   1.391       .  A
C427        H437   1.077   1_655  S
C428        C429   1.405       .  A
C428        H438   1.081       .  S
C429        C430   1.414       .  A
C429        C436   1.414       .  A
C430        C433   1.426       .  A
C431        C432   1.387       .  A
C431        H439   1.079       .  S
C432        C433   1.404       .  A
C432        H440   1.060       .  S
C433        C434   1.431       .  A
C434        C435   1.405       .  A
C435        C436   1.400       .  A
C435        H442   1.084       .  S
C443        C444   1.399       .  A
C443        C448   1.423       .  A
C444        C445   1.399       .  A
C444        H463   1.084       .  S
C445        C446   1.422       .  A
C446        C447   1.421       .  A
C446        C453   1.405       .  A
C447        C448   1.424       .  A
C447        C452   1.431       .  A
C448        C449   1.403       .  A
C449        C450   1.388       .  A
C449        H459   1.076       .  S
C450        C451   1.405       .  A
C450        H460   1.076       .  S
C451        C452   1.421       .  A
C451        C458   1.421       .  A
C452        C455   1.424       .  A
C453        C454   1.388       .  A
C453        H461   1.076       .  S
C454        C455   1.403       .  A
C454        H462   1.076       .  S
C455        C456   1.423       .  A
C456        C457   1.397       .  A
C457        C458   1.398       .  A
C457        H464   1.085       .  S
C465        C466   1.409       .  A
C465        C470   1.424       .  A
C466        C467   1.405       .  A
C466        H485   1.080       .  S
C467        C468   1.421       .  A
C468        C469   1.418       .  A
C468        C475   1.405       .  A
C469        C470   1.416       .  A
C469        C474   1.426       .  A
C470        C471   1.407       .  A
C471        C472   1.395       .  A
C471        H481   1.081       .  S
C472        C473   1.405       .  A
C472        H482   1.081       .  S
C473        C474   1.418       .  A
C473        C480   1.425       .  A
C474        C477   1.415       .  A
C475        C476   1.391       .  A
C475        H483   1.081       .  S
C476        C477   1.405       .  A
C476        H484   1.081       .  S
C477        C478   1.419       .  A
C478        C755   1.402       .  A
C479        H486   1.079       .  S
C480        C755   1.407       .  A
C487        C764   1.410       .  A
C487       C2148   1.408   1_455  A
C488        H501   1.082       .  S
C489        C764   1.402       .  A
C489        C490   1.401       .  A
C489        H778   1.083       .  S
C490       C2147   1.401       .  A
C490       C2149   1.449       .  S
C491       C1318   1.401       .  A
C491        C492   1.402       .  A
C491        H503   1.083       .  S
C492       C1315   1.408       .  A
C492        H504   1.082       .  S
C493       C1318   1.449       .  S
C493       C1322   1.212       .  T
C494        C495   1.449       .  S
C494       C2149   1.212       .  T
C495       C2152   1.401   1_455  A
C495        C500   1.401       .  A
C496       C1323   1.401       .  A
C496        C497   1.402       .  A
C496        H505   1.083       .  S
C497       C1326   1.409       .  A
C497        H506   1.082       .  S
C498       C2153   1.409   1_455  A
C498        C775   1.409       .  A
C499        H507   1.081       .  S
C500        C775   1.402       .  A
C500        H784   1.083       .  S
C509       C2166   1.408   1_455  A
C509        C790   1.407       .  A
C510       C1337   1.408       .  A
C510        C511   1.400       .  A
C510        H523   1.082       .  S
C511       C1340   1.400       .  A
C511        H524   1.083       .  S
C512       C2167   1.400   1_455  A
C512        C789   1.400       .  A
C512        C515   1.444       .  S
C513        C514   1.401       .  A
C513        H525   1.083       .  S
C514        H526   1.081       .  S
C515        C516   1.209       .  T
C516        C517   1.445       .  S
C517        C794   1.400       .  A
C517       C2178   1.399   1_455  A
C518        C519   1.401       .  A
C518        H527   1.083       .  S
C519        H528   1.081       .  S
C520        C795   1.409       .  A
C520       C2177   1.410   1_455  A
C521       C1348   1.410       .  A
C521        C522   1.400       .  A
C521        H529   1.081       .  S
C522       C1345   1.399       .  A
C522        H530   1.084       .  S
C531       C2464   1.409   1_455  A
C531        C536   1.410       .  A
C532       C1083   1.409       .  A
C532        C533   1.400       .  A
C532        H545   1.081       .  S
C533       C1362   1.399       .  A
C533        H546   1.083       .  S
C534       C2189   1.399   1_455  A
C534        C535   1.400       .  A
C534        C537   1.445   1_556  S
C535        H547   1.083       .  S
C536        C811   1.401       .  A
C536        H548   1.081       .  S
C537        C538   1.209       .  T
C538        C539   1.445       .  S
C539        C540   1.399       .  A
C539       C2200   1.400   1_455  A
C540        H549   1.083       .  S
C541        C816   1.401       .  A
C541        C542   1.408       .  A
C541        H550   1.082       .  S
C542       C2475   1.409   1_455  A
C543       C1094   1.409       .  A
C543        C544   1.400       .  A
C543        H551   1.081       .  S
C544       C1367   1.400       .  A
C544        H552   1.083       .  S
N553        N554   1.322       .  A
N553        C557   1.342       .  A
N553       Cu561   2.070       .  S
N554        C555   1.345       .  A
N554      Cu2216   2.077   1_455  S
C555        C556   1.388       .  A
C555        H558   1.082       .  S
C556        C557   1.385       .  A
C556        C721   1.489       .  S
C557        H559   1.082       .  S
Cu560      N1382   2.076       .  S
Cu561       N571   2.070       .  S
Cu562       N564   2.085       .  S
Cu562       N570   2.084       .  S
N563        N564   1.322       .  A
N563        C567   1.347       .  A
N564        C565   1.345       .  A
C565        C566   1.388       .  A
C565        H568   1.082       .  S
C566        C567   1.388       .  A
C566        C719   1.492       .  S
C567        H569   1.082       .  S
N570        N847   1.321   1_565  A
N570        C574   1.346       .  A
N571       N1950   1.319   1_455  A
N571        C572   1.345       .  A
C572        H575   1.081       .  S
C573       C2230   1.390   1_455  A
C573        C807   1.490       .  S
C574       C1401   1.390       .  A
C574        H576   1.081       .  S
N577        N578   1.321       .  A
N577        C581   1.344       .  A
N577       Cu585   2.077       .  S
N578        C579   1.345       .  A
C579        C580   1.388       .  A
C579        H582   1.081       .  S
C580        C581   1.388       .  A
C580        C732   1.491       .  S
C581        H583   1.082       .  S
Cu584      N2243   2.068   1_455  S
Cu585       N595   2.076       .  S
Cu586       N588   2.068       .  S
Cu586       N594   2.068       .  S
N587        N588   1.321       .  A
N587        C591   1.344       .  A
N587      Cu1412   2.068       .  S
N588        C589   1.341       .  A
C589        C590   1.385       .  A
C589        H592   1.082       .  S
C590        C591   1.387       .  A
C590        C734   1.486       .  S
C591        H593   1.082       .  S
N594        N871   1.320   1_565  A
N594        C598   1.345       .  A
N595       N1974   1.320       .  A
N595        C596   1.345       .  A
C596        H599   1.081       .  S
C597       C2254   1.386   1_455  A
C597        C785   1.486       .  S
C598       C1425   1.386       .  A
C598        H600   1.082       .  S
N601        N602   1.319   1_565  A
N601        C605   1.349       .  A
N601       Cu609   2.095       .  S
N602        C603   1.342       .  A
N602      Cu1436   2.062       .  S
C603        C604   1.388   1_545  A
C603        H606   1.081       .  S
C604        C605   1.395       .  A
C604        C743   1.499   1_565  S
C605        H607   1.081       .  S
Cu608      N2258   2.062   1_455  S
Cu608       N611   2.063       .  S
Cu609       N619   2.097       .  S
Cu610       N612   2.085       .  S
Cu610       N618   2.087       .  S
N611        N612   1.318       .  A
N611        C615   1.341       .  A
N612        C613   1.347       .  A
C613        C614   1.396       .  A
C613        H616   1.081       .  S
C614        C615   1.390       .  A
C614        C741   1.500       .  S
C615        H617   1.081       .  S
N618       N2275   1.324   1_545  A
N618        C622   1.346       .  A
N619       N1446   1.324   1_565  A
N619        C620   1.348       .  A
C620       C1449   1.391       .  A
C620        H623   1.081       .  S
C621       C2276   1.391   1_455  A
C621        C622   1.389   1_565  A
C621        C774   1.494       .  S
C622        H624   1.081       .  S
N625        N626   1.318       .  A
N625        C629   1.347       .  A
N625       Cu633   2.090       .  S
N626        C627   1.342       .  A
N626       Cu632   2.059       .  S
C627        C628   1.390       .  A
C627        H630   1.081       .  S
C628        C629   1.397       .  A
C628        C756   1.502       .  S
C629        H631   1.080       .  S
Cu632      N2291   2.059   1_455  S
Cu633       N643   2.091       .  S
Cu634       N636   2.084       .  S
Cu634       N642   2.086       .  S
N635        N636   1.320   1_545  A
N635        C639   1.340       .  A
N635      Cu1460   2.059       .  S
N636        C637   1.348       .  A
C637        C638   1.393   1_565  A
C637        H640   1.082       .  S
C638        C639   1.385       .  A
C638        C754   1.493       .  S
C639        H641   1.081       .  S
N642       N1471   1.323   1_565  A
N642        C646   1.346       .  A
N643       N2298   1.323   1_445  A
N643        C644   1.347       .  A
C644        C645   1.391   1_545  A
C644        H647   1.081       .  S
C645       C2302   1.390   1_455  A
C645        C796   1.494       .  S
C646       C1473   1.390       .  A
C646        H648   1.081       .  S
N649        N650   1.315   1_455  A
N649        C653   1.344       .  A
N649       Cu657   2.081       .  S
N650        C651   1.340       .  A
N650       Cu656   2.042       .  S
C651        C652   1.389       .  A
C651        H654   1.080       .  S
C652        C653   1.398   1_655  A
C652        C697   1.501       .  S
C653        H655   1.080       .  S
Cu657       N667   2.085       .  S
Cu658       N660   2.080       .  S
Cu658       N666   2.084       .  S
N659        N660   1.317       .  A
N659        C663   1.335       .  A
N660        C661   1.348       .  A
C661        C662   1.394       .  A
C661        H664   1.082       .  S
C662        C663   1.383       .  A
C662        C699   1.491       .  S
C663        H665   1.081       .  S
N666        C670   1.345       .  A
N667        C668   1.345       .  A
C668        C669   1.388   1_455  A
C668        H671   1.081       .  S
C669        C818   1.492   1_655  S
C670        H672   1.081       .  S
N673        N674   1.322       .  A
N673        C677   1.345       .  A
N673       Cu681   2.074       .  S
N674        C675   1.346       .  A
N674       Cu680   2.082       .  S
C675        C676   1.388       .  A
C675        H678   1.082       .  S
C676        C677   1.385       .  A
C676        C712   1.488       .  S
C677        H679   1.082       .  S
Cu681       N691   2.075       .  S
Cu682       N684   2.091       .  S
N683        N684   1.320       .  A
N683        C687   1.345       .  A
N684        C685   1.345       .  A
C685        C686   1.393       .  A
C685        H688   1.082       .  S
C686        C687   1.391       .  A
C686        C710   1.502       .  S
C687        H689   1.079       .  S
N690        N691   1.321   1_545  A
N691        C692   1.345       .  A
C692        C693   1.388   1_655  A
C692        H695   1.081       .  S
C693        C763   1.491       .  S
C694        H696   1.081       .  S
C697        C698   1.404       .  A
C697        C702   1.428       .  A
C698        C699   1.398       .  A
C698        H717   1.079       .  S
C699        C700   1.421       .  A
C700        C701   1.414       .  A
C700        C707   1.403       .  A
C701        C702   1.422       .  A
C701        C706   1.430       .  A
C702        C703   1.405       .  A
C703        C704   1.391       .  A
C703        H713   1.077   1_655  S
C704        C705   1.404       .  A
C704        H714   1.081       .  S
C705        C706   1.415       .  A
C705        C712   1.415       .  A
C706        C709   1.426       .  A
C707        C708   1.387       .  A
C707        H715   1.079       .  S
C708        C709   1.404       .  A
C708        H716   1.069       .  S
C709        C710   1.430       .  A
C710        C711   1.405       .  A
C711        C712   1.400       .  A
C711        H718   1.084       .  S
C719        C720   1.398       .  A
C719        C724   1.422       .  A
C720        C721   1.399       .  A
C720        H739   1.084       .  S
C721        C722   1.421       .  A
C722        C723   1.421       .  A
C722        C729   1.405       .  A
C723        C724   1.424       .  A
C723        C728   1.430       .  A
C724        C725   1.403       .  A
C725        C726   1.389       .  A
C725        H735   1.077       .  S
C726        C727   1.406       .  A
C726        H736   1.076       .  S
C727        C728   1.421       .  A
C727        C734   1.421       .  A
C728        C731   1.424       .  A
C729        C730   1.387       .  A
C729        H737   1.075       .  S
C730        C731   1.402       .  A
C730        H738   1.076       .  S
C731        C732   1.422       .  A
C732        C733   1.397       .  A
C733        C734   1.398       .  A
C733        H740   1.084       .  S
C741        C742   1.408       .  A
C741        C746   1.424       .  A
C742        C743   1.404       .  A
C742        H761   1.079       .  S
C743        C744   1.421   1_545  A
C744        C745   1.418   1_565  A
C744        C751   1.405       .  A
C745        C746   1.416       .  A
C745        C750   1.425       .  A
C746        C747   1.407       .  A
C747        C748   1.395       .  A
C747        H757   1.081       .  S
C748        C749   1.405       .  A
C748        H758   1.081       .  S
C749        C750   1.418       .  A
C749        C756   1.425       .  A
C750        C753   1.415   1_545  A
C751        C752   1.392       .  A
C751        H759   1.081       .  S
C752        C753   1.406       .  A
C752        H760   1.081       .  S
C753        C754   1.419   1_565  A
C755        H762   1.079       .  S
C763       C2424   1.408   1_565  A
C764        H777   1.082       .  S
C765        C766   1.401       .  A
C766       C2423   1.401   1_565  A
C766       C2425   1.448       .  S
C767       C1594   1.401   1_545  A
C767        C768   1.401       .  A
C767        H779   1.083       .  S
C768       C1591   1.408   1_545  A
C768        H780   1.082       .  S
C769       C1594   1.448       .  S
C769       C1598   1.211       .  T
C770        C771   1.448       .  S
C770       C2425   1.211       .  T
C771       C2428   1.401   1_455  A
C771        C776   1.400       .  A
C772       C1599   1.401       .  A
C772        C773   1.402       .  A
C772        H781   1.083       .  S
C773       C1602   1.409       .  A
C773        H782   1.081       .  S
C774       C2429   1.409   1_455  A
C775        H783   1.082       .  S
C785       C2442   1.408   1_455  A
C786       C1613   1.408       .  A
C786        C787   1.401       .  A
C786        H799   1.082       .  S
C787       C1616   1.400       .  A
C787        H800   1.083       .  S
C788       C2443   1.400   1_455  A
C788        C791   1.446       .  S
C789        C790   1.400       .  A
C789        H801   1.083       .  S
C790        H802   1.082       .  S
C791        C792   1.210       .  T
C792        C793   1.446       .  S
C793       C2454   1.400   1_455  A
C794        C795   1.401       .  A
C794        H803   1.084       .  S
C795        H804   1.081       .  S
C796       C2453   1.410   1_455  A
C797       C1624   1.410       .  A
C797        C798   1.401       .  A
C797        H805   1.081       .  S
C798       C1621   1.400       .  A
C798        H806   1.084       .  S
C807       C1912   1.408   1_455  A
C807        C812   1.409   1_565  A
C808       C1359   1.409       .  A
C808        C809   1.400       .  A
C808        H821   1.081       .  S
C809       C1638   1.399       .  A
C809        H822   1.083       .  S
C810       C2465   1.399   1_455  A
C810        C811   1.400       .  A
C810        C813   1.445   1_556  S
C811        H823   1.084       .  S
C812        H824   1.082       .  S
C813        C814   1.209       .  T
C814        C815   1.445       .  S
C815        C816   1.400       .  A
C815       C2476   1.400   1_455  A
C816        H825   1.083       .  S
C817        C818   1.410       .  A
C817        H826   1.081       .  S
C818       C1923   1.409   1_465  A
C819       C1370   1.409       .  A
C819        C820   1.400       .  A
C819        H827   1.082       .  S
C820       C1643   1.400       .  A
C820        H828   1.083       .  S
N829        N830   1.322       .  A
N829        C833   1.343       .  A
N829       Cu837   2.077       .  S
N830        C831   1.345       .  A
C831        C832   1.387       .  A
C831        H834   1.082       .  S
C832        C833   1.386       .  A
C832        C997   1.489       .  S
C833        H835   1.082       .  S
Cu836      N1658   2.073       .  S
Cu836      N1391   2.074   1_545  S
Cu837       N847   2.077       .  S
Cu838       N840   2.078       .  S
Cu838       N846   2.078       .  S
N839        N840   1.322       .  A
N839        C843   1.347       .  A
N839      Cu1112   2.076       .  S
N840        C841   1.343       .  A
C841        C842   1.386       .  A
C841        H844   1.082       .  S
C842        C843   1.389       .  A
C842        C995   1.492       .  S
C843        H845   1.082       .  S
N846       N1951   1.320       .  A
N846        C850   1.346       .  A
N847        C848   1.347       .  A
C848       C1401   1.389   1_545  A
C848        H851   1.082       .  S
C849       C1124   1.390       .  A
C849       C1083   1.492       .  S
C850       C1677   1.391       .  A
C850        H852   1.081       .  S
N853        N854   1.322       .  A
N853        C857   1.344       .  A
N853       Cu861   2.084       .  S
N854        C855   1.345       .  A
N854      Cu1412   2.069   1_545  S
C855        C856   1.386       .  A
C855        H858   1.082       .  S
C856        C857   1.388       .  A
C856       C1008   1.490       .  S
C857        H859   1.082       .  S
Cu860      N1130   2.069       .  S
Cu861       N871   2.084       .  S
Cu862       N864   2.071       .  S
Cu862       N870   2.070       .  S
N863        N864   1.321       .  A
N863        C867   1.345       .  A
N863      Cu1688   2.068       .  S
N864        C865   1.341       .  A
C865        C866   1.386       .  A
C865        H868   1.082       .  S
C866        C867   1.386       .  A
C866       C1010   1.487       .  S
C867        H869   1.082       .  S
N870       N1975   1.320       .  A
N870        C874   1.345       .  A
N871        C872   1.347       .  A
C872       C1425   1.389   1_545  A
C872        H875   1.081       .  S
C873       C1148   1.392       .  A
C873       C1061   1.492       .  S
C874       C1701   1.390       .  A
C874        H876   1.081       .  S
N877        N878   1.319       .  A
N877        C881   1.350       .  A
N877       Cu885   2.095       .  S
N878        C879   1.342       .  A
N878      Cu1712   2.065       .  S
C879        C880   1.387       .  A
C879        H882   1.081       .  S
C880        C881   1.396       .  A
C880       C1019   1.499       .  S
C881        H883   1.081       .  S
Cu884       N887   2.066       .  S
Cu885       N895   2.097       .  S
Cu886       N888   2.086       .  S
Cu886       N894   2.088       .  S
N887        N888   1.319       .  A
N887        C891   1.342       .  A
N888        C889   1.347       .  A
C889        C890   1.396       .  A
C889        H892   1.081       .  S
C890        C891   1.390       .  A
C890       C1017   1.502       .  S
C891        H893   1.081       .  S
N894        C898   1.347       .  A
N895       N1722   1.324       .  A
N895        C896   1.347       .  A
C896       C1725   1.391       .  A
C896        H899   1.081       .  S
C897        C898   1.390       .  A
C897       C1050   1.496       .  S
C898        H900   1.081       .  S
N901        N902   1.318       .  A
N901        C905   1.347       .  A
N901       Cu909   2.090       .  S
N902        C903   1.342       .  A
N902       Cu908   2.059       .  S
C903        C904   1.390       .  A
C903        H906   1.081       .  S
C904        C905   1.398       .  A
C904       C1032   1.503       .  S
C905        H907   1.081       .  S
Cu909       N919   2.091       .  S
Cu910       N912   2.083       .  S
Cu910       N918   2.084       .  S
N911        N912   1.320       .  A
N911        C915   1.339       .  A
N911      Cu1736   2.059       .  S
N912        C913   1.348       .  A
C913        C914   1.393       .  A
C913        H916   1.081       .  S
C914        C915   1.386       .  A
C914       C1030   1.494       .  S
C915        H917   1.081       .  S
N918       N1747   1.323       .  A
N918        C922   1.346       .  A
N919        C920   1.347       .  A
C920        C921   1.390       .  A
C920        H923   1.081       .  S
C921       C1072   1.491       .  S
C922       C1749   1.389       .  A
C922        H924   1.081       .  S
N925        N926   1.316       .  A
N925        C929   1.345       .  A
N925       Cu933   2.082       .  S
N926        C927   1.340       .  A
N926       Cu932   2.044       .  S
C927        C928   1.389       .  A
C927        H930   1.081       .  S
C928        C929   1.397       .  A
C928        C973   1.500       .  S
C929        H931   1.080       .  S
Cu932      N1211   2.041       .  S
Cu933       N943   2.086       .  S
Cu934       N936   2.086       .  S
Cu934       N942   2.090       .  S
N935        N936   1.318       .  A
N935        C939   1.336       .  A
N935      Cu1484   2.041   1_545  S
N936        C937   1.349       .  A
C937        C938   1.395       .  A
C937        H940   1.082       .  S
C938        C939   1.383       .  A
C938        C975   1.492       .  S
C939        H941   1.081       .  S
N942       N1495   1.324   1_545  A
N942        C946   1.347       .  A
N943       N1218   1.324       .  A
N943        C944   1.346       .  A
C944        C945   1.389       .  A
C944        H947   1.081       .  S
C945       C1222   1.388       .  A
C945       C1094   1.490       .  S
C946       C1497   1.390   1_545  A
C946        H948   1.081       .  S
N949        N950   1.322       .  A
N949        C953   1.345       .  A
N949       Cu957   2.075       .  S
N950        C951   1.346       .  A
N950       Cu956   2.079       .  S
C951        C952   1.387       .  A
C951        H954   1.082       .  S
C952        C953   1.384       .  A
C952        C988   1.487       .  S
C953        H955   1.082       .  S
Cu956      N1235   2.078       .  S
Cu957       N967   2.076       .  S
Cu958       N960   2.085       .  S
Cu958      N1518   2.085       .  S
N959        N960   1.320       .  A
N959        C963   1.346       .  A
N959      Cu1508   2.081   1_545  S
N960        C961   1.345       .  A
C961        C962   1.392       .  A
C961        H964   1.082       .  S
C962        C963   1.393       .  A
C962        C986   1.504       .  S
C963        H965   1.079       .  S
N966        N967   1.321       .  A
N966       C1246   1.348       .  A
N966      Cu1234   2.089       .  S
N967        C968   1.346       .  A
C968        C969   1.389       .  A
C968        H971   1.081       .  S
C969       C1246   1.392       .  A
C969       C1039   1.493       .  S
C970       N1518   1.347       .  A
C970       C1521   1.391   1_545  A
C970        H972   1.081       .  S
C973        C974   1.404       .  A
C973        C978   1.427       .  A
C974        C975   1.398       .  A
C974        H993   1.080       .  S
C975        C976   1.422       .  A
C976        C977   1.415       .  A
C976        C983   1.403       .  A
C977        C978   1.421       .  A
C977        C982   1.430       .  A
C978        C979   1.405       .  A
C979        C980   1.391       .  A
C979        H989   1.078       .  S
C980        C981   1.405       .  A
C980        H990   1.081       .  S
C981        C982   1.415       .  A
C981        C988   1.414       .  A
C982        C985   1.426       .  A
C983        C984   1.387       .  A
C983        H991   1.078       .  S
C984        C985   1.404       .  A
C984        H992   1.064       .  S
C985        C986   1.431       .  A
C986        C987   1.405       .  A
C987        C988   1.401       .  A
C987        H994   1.084       .  S
C995        C996   1.398       .  A
C995       C1000   1.423       .  A
C996        C997   1.398       .  A
C996       H1015   1.085       .  S
C997        C998   1.422       .  A
C998        C999   1.422       .  A
C998       C1005   1.405       .  A
C999       C1000   1.424       .  A
C999       C1004   1.431       .  A
C1000      C1001   1.403       .  A
C1001      C1002   1.389       .  A
C1001      H1011   1.076       .  S
C1002      C1003   1.405       .  A
C1002      H1012   1.076       .  S
C1003      C1004   1.422       .  A
C1003      C1010   1.422       .  A
C1004      C1007   1.424       .  A
C1005      C1006   1.388       .  A
C1005      H1013   1.075       .  S
C1006      C1007   1.403       .  A
C1006      H1014   1.076       .  S
C1007      C1008   1.422       .  A
C1008      C1009   1.395       .  A
C1009      C1010   1.398       .  A
C1009      H1016   1.085       .  S
C1017      C1018   1.409       .  A
C1017      C1022   1.424       .  A
C1018      C1019   1.404       .  A
C1018      H1037   1.079       .  S
C1019      C1020   1.421       .  A
C1020      C1021   1.418       .  A
C1020      C1027   1.405       .  A
C1021      C1022   1.416       .  A
C1021      C1026   1.426       .  A
C1022      C1023   1.407       .  A
C1023      C1024   1.395       .  A
C1023      H1033   1.081       .  S
C1024      C1025   1.405       .  A
C1024      H1034   1.081       .  S
C1025      C1026   1.418       .  A
C1025      C1032   1.425       .  A
C1026      C1029   1.415       .  A
C1027      C1028   1.391       .  A
C1027      H1035   1.081       .  S
C1028      C1029   1.406       .  A
C1028      H1036   1.081       .  S
C1029      C1030   1.419       .  A
C1030      C1307   1.403       .  A
C1031      C1582   1.403       .  A
C1031      C1584   1.407       .  A
C1031      H1038   1.079       .  S
C1032      C1307   1.406       .  A
C1039      C1316   1.410       .  A
C1040      C1591   1.409       .  A
C1040      C1593   1.402       .  A
C1040      H1053   1.082       .  S
C1041      C1316   1.402       .  A
C1041      C1042   1.401       .  A
C1041      H1330   1.083       .  S
C1043      C1870   1.401       .  A
C1043      C1044   1.402       .  A
C1043      H1055   1.083       .  S
C1044      C1867   1.409       .  A
C1044      H1056   1.081       .  S
C1045      C1870   1.449       .  S
C1045      C1874   1.212       .  T
C1046      C1047   1.449       .  S
C1047      C1052   1.400       .  A
C1048      C1875   1.400       .  A
C1048      C1049   1.402       .  A
C1048      H1057   1.083       .  S
C1049      C1878   1.410       .  A
C1049      H1058   1.081       .  S
C1050      C1327   1.410       .  A
C1051      C1602   1.410   1_545  A
C1051      C1604   1.402   1_545  A
C1051      H1059   1.081       .  S
C1052      C1327   1.402       .  A
C1052      H1336   1.083       .  S
H1054      C1593   1.083       .  S
H1060      C1604   1.083   1_545  S
C1061      C1342   1.409       .  A
C1062      C1889   1.410       .  A
C1062      C1063   1.400       .  A
C1062      H1075   1.081       .  S
C1063      C1892   1.399       .  A
C1063      H1076   1.083       .  S
C1064      C1341   1.400       .  A
C1064      C1067   1.446       .  S
C1065      C1616   1.401   1_545  A
C1065      C1066   1.401       .  A
C1065      H1077   1.083       .  S
C1066      C1613   1.407   1_545  A
C1066      H1078   1.082       .  S
C1067      C1068   1.210       .  T
C1068      C1069   1.446       .  S
C1069      C1346   1.400       .  A
C1070      C1621   1.400   1_545  A
C1070      C1071   1.401       .  A
C1070      H1079   1.083       .  S
C1071      C1624   1.409   1_545  A
C1071      H1080   1.081       .  S
C1072      C1347   1.409       .  A
C1073      C1900   1.409       .  A
C1073      C1074   1.400       .  A
C1073      H1081   1.081       .  S
C1074      C1897   1.400       .  A
C1074      H1082   1.083       .  S
C1083      C1088   1.410       .  A
C1084      C2463   1.408       .  A
C1084      C1085   1.401       .  A
C1084      H1097   1.082       .  S
C1085      C1914   1.400       .  A
C1085      H1098   1.083       .  S
C1086      C1087   1.401   1_565  A
C1086      C1089   1.446   1_556  S
C1087      C1640   1.402       .  A
C1087      H1099   1.083       .  S
C1088      C1363   1.401       .  A
C1088      H1100   1.081       .  S
C1089      C1090   1.210       .  T
C1090      C1091   1.446       .  S
C1091      C1092   1.399       .  A
C1092      C1645   1.400       .  A
C1092      H1101   1.083       .  S
C1093      C1368   1.400       .  A
C1093      C1094   1.409       .  A
C1093      H1102   1.081       .  S
C1095      C2474   1.409   1_545  A
C1095      C1096   1.401       .  A
C1095      H1103   1.081       .  S
C1096      C1919   1.400   1_545  A
C1096      H1104   1.083       .  S
N1105      N1106   1.322       .  A
N1105      C1109   1.344       .  A
N1105     Cu1113   2.075       .  S
N1106      C1107   1.345       .  A
C1107      C1108   1.387       .  A
C1107      H1110   1.082       .  S
C1108      C1109   1.386       .  A
C1108      C1273   1.490       .  S
C1109      H1111   1.082       .  S
Cu1112     N1934   2.076       .  S
Cu1113     N1123   2.075       .  S
Cu1114     N1116   2.085       .  S
Cu1114     N1122   2.085       .  S
N1115      N1116   1.322       .  A
N1115      C1119   1.347       .  A
N1115     Cu1388   2.077       .  S
N1116      C1117   1.344       .  A
C1117      C1118   1.388       .  A
C1117      H1120   1.082       .  S
C1118      C1119   1.389       .  A
C1118      C1271   1.494       .  S
C1119      H1121   1.082       .  S
N1122      N2227   1.319       .  A
N1122      C1126   1.346       .  A
N1123      C1124   1.345       .  A
C1124      H1127   1.081       .  S
C1125      C1400   1.390       .  A
C1125      C1359   1.493       .  S
C1126      C1953   1.392       .  A
C1126      H1128   1.081       .  S
N1129      N1130   1.322       .  A
N1129      C1133   1.344       .  A
N1129     Cu1137   2.085       .  S
N1130      C1131   1.345       .  A
C1131      C1132   1.386       .  A
C1131      H1134   1.082       .  S
C1132      C1133   1.388       .  A
C1132      C1284   1.491       .  S
C1133      H1135   1.082       .  S
Cu1136     N1406   2.070       .  S
Cu1137     N1147   2.085       .  S
Cu1138     N1140   2.072       .  S
Cu1138     N1146   2.072       .  S
N1139      N1140   1.322       .  A
N1139      C1143   1.344       .  A
N1139     Cu1964   2.070       .  S
N1140      C1141   1.343       .  A
C1141      C1142   1.385       .  A
C1141      H1144   1.082       .  S
C1142      C1143   1.386       .  A
C1142      C1286   1.486       .  S
C1143      H1145   1.082       .  S
N1146      N2251   1.320       .  A
N1146      C1150   1.345       .  A
N1147      C1148   1.346       .  A
C1148      H1151   1.081       .  S
C1149      C1424   1.388       .  A
C1149      C1337   1.485       .  S
C1150      C1977   1.388       .  A
C1150      H1152   1.082       .  S
N1153      N1154   1.320       .  A
N1153      C1157   1.350       .  A
N1153     Cu1161   2.095       .  S
N1154      C1155   1.342       .  A
N1154     Cu1988   2.066       .  S
C1155      C1156   1.387       .  A
C1155      H1158   1.082       .  S
C1156      C1157   1.395       .  A
C1156      C1295   1.499       .  S
C1157      H1159   1.081       .  S
Cu1160     N1163   2.066       .  S
Cu1161     N1171   2.097       .  S
Cu1162     N1164   2.086       .  S
Cu1162     N1170   2.088       .  S
N1163      N1164   1.319       .  A
N1163      C1167   1.341       .  A
N1164      C1165   1.348       .  A
C1165      C1166   1.396       .  A
C1165      H1168   1.081       .  S
C1166      C1167   1.390       .  A
C1166      C1293   1.501       .  S
C1167      H1169   1.081       .  S
N1170      C1174   1.347       .  A
N1171      N1998   1.324       .  A
N1171      C1172   1.348       .  A
C1172      C2001   1.390       .  A
C1172      H1175   1.081       .  S
C1173      C1174   1.388       .  A
C1173      C1326   1.493       .  S
C1174      H1176   1.081       .  S
N1177      N1178   1.318       .  A
N1177      C1181   1.346       .  A
N1177     Cu1185   2.089       .  S
N1178      C1179   1.343       .  A
N1178     Cu1184   2.060       .  S
C1179      C1180   1.391       .  A
C1179      H1182   1.081       .  S
C1180      C1181   1.397       .  A
C1180      C1308   1.503       .  S
C1181      H1183   1.080       .  S
Cu1185     N1195   2.090       .  S
Cu1186     N1188   2.084       .  S
Cu1186     N1194   2.085       .  S
N1187      N1188   1.320       .  A
N1187      C1191   1.339       .  A
N1187     Cu2012   2.059       .  S
N1188      C1189   1.348       .  A
C1189      C1190   1.393       .  A
C1189      H1192   1.082       .  S
C1190      C1191   1.386       .  A
C1190      C1306   1.494       .  S
C1191      H1193   1.081       .  S
N1194      N2023   1.323       .  A
N1194      C1198   1.345       .  A
N1195      C1196   1.347       .  A
C1196      C1197   1.391       .  A
C1196      H1199   1.081       .  S
C1197      C1348   1.492       .  S
C1198      C2025   1.389       .  A
C1198      H1200   1.081       .  S
N1201      N1202   1.315       .  A
N1201      C1205   1.345       .  A
N1201     Cu1209   2.085       .  S
N1202      C1203   1.340       .  A
N1202     Cu1208   2.041       .  S
C1203      C1204   1.389       .  A
C1203      H1206   1.080       .  S
C1204      C1205   1.398       .  A
C1204      C1249   1.502       .  S
C1205      H1207   1.080       .  S
Cu1208     N1487   2.039       .  S
Cu1209     N1219   2.088       .  S
Cu1210     N1212   2.081       .  S
Cu1210     N1218   2.085       .  S
N1211      N1212   1.318       .  A
N1211      C1215   1.335       .  A
N1212      C1213   1.349       .  A
C1213      C1214   1.394       .  A
C1213      H1216   1.082       .  S
C1214      C1215   1.383       .  A
C1214      C1251   1.491       .  S
C1215      H1217   1.081       .  S
N1218      C1222   1.346       .  A
N1219      N1494   1.324       .  A
N1219      C1220   1.346       .  A
C1220      C1221   1.388       .  A
C1220      H1223   1.081       .  S
C1221      C1498   1.387       .  A
C1221      C1370   1.489       .  S
C1222      H1224   1.081       .  S
N1225      N1226   1.321       .  A
N1225      C1229   1.345       .  A
N1225     Cu1233   2.074       .  S
N1226      C1227   1.345       .  A
N1226     Cu1232   2.075       .  S
C1227      C1228   1.387       .  A
C1227      H1230   1.082       .  S
C1228      C1229   1.385       .  A
C1228      C1264   1.487       .  S
C1229      H1231   1.082       .  S
Cu1232     N1511   2.074       .  S
Cu1233     N1243   2.075       .  S
Cu1234     N1236   2.089       .  S
N1235      N1236   1.320       .  A
N1235      C1239   1.346       .  A
N1236      C1237   1.344       .  A
C1237      C1238   1.394       .  A
C1237      H1240   1.082       .  S
C1238      C1239   1.394       .  A
C1238      C1262   1.506       .  S
C1239      H1241   1.076       .  S
N1242      N1243   1.321       .  A
N1242      C1522   1.348       .  A
N1242     Cu1510   2.091       .  S
N1243      C1244   1.345       .  A
C1244      C1245   1.388       .  A
C1244      H1247   1.081       .  S
C1245      C1522   1.392       .  A
C1245      C1315   1.492       .  S
C1246      H1248   1.081       .  S
C1249      C1250   1.405       .  A
C1249      C1254   1.429       .  A
C1250      C1251   1.398       .  A
C1250      H1269   1.079       .  S
C1251      C1252   1.419       .  A
C1252      C1253   1.413       .  A
C1252      C1259   1.402       .  A
C1253      C1254   1.422       .  A
C1253      C1258   1.430       .  A
C1254      C1255   1.405       .  A
C1255      C1256   1.391       .  A
C1255      H1265   1.077       .  S
C1256      C1257   1.405       .  A
C1256      H1266   1.081       .  S
C1257      C1258   1.414       .  A
C1257      C1264   1.414       .  A
C1258      C1261   1.426       .  A
C1259      C1260   1.387       .  A
C1259      H1267   1.079       .  S
C1260      C1261   1.404       .  A
C1260      H1268   1.060       .  S
C1261      C1262   1.431       .  A
C1262      C1263   1.405       .  A
C1263      C1264   1.400       .  A
C1263      H1270   1.084       .  S
C1271      C1272   1.399       .  A
C1271      C1276   1.423       .  A
C1272      C1273   1.399       .  A
C1272      H1291   1.084       .  S
C1273      C1274   1.422       .  A
C1274      C1275   1.421       .  A
C1274      C1281   1.405       .  A
C1275      C1276   1.424       .  A
C1275      C1280   1.431       .  A
C1276      C1277   1.403       .  A
C1277      C1278   1.388       .  A
C1277      H1287   1.076       .  S
C1278      C1279   1.405       .  A
C1278      H1288   1.076       .  S
C1279      C1280   1.421       .  A
C1279      C1286   1.421       .  A
C1280      C1283   1.424       .  A
C1281      C1282   1.388       .  A
C1281      H1289   1.076       .  S
C1282      C1283   1.403       .  A
C1282      H1290   1.076       .  S
C1283      C1284   1.423       .  A
C1284      C1285   1.397       .  A
C1285      C1286   1.398       .  A
C1285      H1292   1.085       .  S
C1293      C1294   1.409       .  A
C1293      C1298   1.424       .  A
C1294      C1295   1.405       .  A
C1294      H1313   1.080       .  S
C1295      C1296   1.421       .  A
C1296      C1297   1.418       .  A
C1296      C1303   1.405       .  A
C1297      C1298   1.416       .  A
C1297      C1302   1.426       .  A
C1298      C1299   1.407       .  A
C1299      C1300   1.395       .  A
C1299      H1309   1.081       .  S
C1300      C1301   1.405       .  A
C1300      H1310   1.081       .  S
C1301      C1302   1.418       .  A
C1301      C1308   1.425       .  A
C1302      C1305   1.415       .  A
C1303      C1304   1.391       .  A
C1303      H1311   1.081       .  S
C1304      C1305   1.405       .  A
C1304      H1312   1.081       .  S
C1305      C1306   1.419       .  A
C1306      C1583   1.402       .  A
C1307      H1314   1.079       .  S
C1308      C1583   1.407       .  A
C1315      C1592   1.410       .  A
C1316      H1329   1.082       .  S
C1317      C1592   1.402       .  A
C1317      C1318   1.401       .  A
C1317      H1606   1.083       .  S
C1319      C2146   1.401       .  A
C1319      C1320   1.402       .  A
C1319      H1331   1.083       .  S
C1320      C2143   1.408       .  A
C1320      H1332   1.082       .  S
C1321      C2146   1.449       .  S
C1321      C2150   1.212       .  T
C1322      C1323   1.449       .  S
C1323      C1328   1.401       .  A
C1324      C2151   1.401       .  A
C1324      C1325   1.402       .  A
C1324      H1333   1.083       .  S
C1325      C2154   1.409       .  A
C1325      H1334   1.082       .  S
C1326      C1603   1.409       .  A
C1327      H1335   1.081       .  S
C1328      C1603   1.402       .  A
C1328      H1612   1.083       .  S
C1337      C1618   1.407       .  A
C1338      C2165   1.408       .  A
C1338      C1339   1.400       .  A
C1338      H1351   1.082       .  S
C1339      C2168   1.400       .  A
C1339      H1352   1.083       .  S
C1340      C1617   1.400       .  A
C1340      C1343   1.444       .  S
C1341      C1342   1.401       .  A
C1341      H1353   1.083       .  S
C1342      H1354   1.081       .  S
C1343      C1344   1.209       .  T
C1344      C1345   1.445       .  S
C1345      C1622   1.400       .  A
C1346      C1347   1.401       .  A
C1346      H1355   1.083       .  S
C1347      H1356   1.081       .  S
C1348      C1623   1.409       .  A
C1349      C2176   1.410       .  A
C1349      C1350   1.400       .  A
C1349      H1357   1.081       .  S
C1350      C2173   1.399       .  A
C1350      H1358   1.084       .  S
C1359      C1364   1.410       .  A
C1360      C1911   1.409       .  A
C1360      C1361   1.400       .  A
C1360      H1373   1.081       .  S
C1361      C2190   1.399       .  A
C1361      H1374   1.083       .  S
C1362      C1363   1.400       .  A
C1362      C1365   1.445   1_556  S
C1363      H1375   1.083       .  S
C1364      C1639   1.401       .  A
C1364      H1376   1.081       .  S
C1365      C1366   1.209       .  T
C1366      C1367   1.445       .  S
C1367      C1368   1.399       .  A
C1368      H1377   1.083       .  S
C1369      C1644   1.401       .  A
C1369      C1370   1.408       .  A
C1369      H1378   1.082       .  S
C1371      C1922   1.409       .  A
C1371      C1372   1.400       .  A
C1371      H1379   1.081       .  S
C1372      C2195   1.400       .  A
C1372      H1380   1.083       .  S
N1381      N1382   1.322       .  A
N1381      C1385   1.342       .  A
N1381     Cu1389   2.070       .  S
N1382      C1383   1.345       .  A
C1383      C1384   1.388       .  A
C1383      H1386   1.082       .  S
C1384      C1385   1.385       .  A
C1384      C1549   1.489       .  S
C1385      H1387   1.082       .  S
Cu1388     N2210   2.076       .  S
Cu1389     N1399   2.070       .  S
Cu1390     N1392   2.085       .  S
Cu1390     N1398   2.084       .  S
N1391      N1392   1.322       .  A
N1391      C1395   1.347       .  A
N1392      C1393   1.345       .  A
C1393      C1394   1.388       .  A
C1393      H1396   1.082       .  S
C1394      C1395   1.388       .  A
C1394      C1547   1.492       .  S
C1395      H1397   1.082       .  S
N1398      N1675   1.321   1_565  A
N1398      C1402   1.346       .  A
N1399      C1400   1.345       .  A
C1400      H1403   1.081       .  S
C1401      C1635   1.490       .  S
C1402      C2229   1.390       .  A
C1402      H1404   1.081       .  S
N1405      N1406   1.321       .  A
N1405      C1409   1.344       .  A
N1405     Cu1413   2.077       .  S
N1406      C1407   1.345       .  A
C1407      C1408   1.388       .  A
C1407      H1410   1.082       .  S
C1408      C1409   1.388       .  A
C1408      C1560   1.491       .  S
C1409      H1411   1.082       .  S
Cu1413     N1423   2.076       .  S
Cu1414     N1416   2.068       .  S
Cu1414     N1422   2.068       .  S
N1415      N1416   1.321       .  A
N1415      C1419   1.344       .  A
N1415     Cu2240   2.068       .  S
N1416      C1417   1.341       .  A
C1417      C1418   1.385       .  A
C1417      H1420   1.082       .  S
C1418      C1419   1.387       .  A
C1418      C1562   1.486       .  S
C1419      H1421   1.082       .  S
N1422      N1699   1.320   1_565  A
N1422      C1426   1.345       .  A
N1423      C1424   1.345       .  A
C1424      H1427   1.081       .  S
C1425      C1613   1.486       .  S
C1426      C2253   1.386       .  A
C1426      H1428   1.082       .  S
N1429      N1430   1.319   1_565  A
N1429      C1433   1.349       .  A
N1429     Cu1437   2.094       .  S
N1430      C1431   1.342       .  A
N1430     Cu2264   2.062       .  S
C1431      C1432   1.388   1_545  A
C1431      H1434   1.081       .  S
C1432      C1433   1.395       .  A
C1432      C1571   1.499   1_565  S
C1433      H1435   1.081       .  S
Cu1436     N1439   2.062       .  S
Cu1437     N1447   2.096       .  S
Cu1438     N1440   2.085       .  S
Cu1438     N1446   2.087       .  S
N1439      N1440   1.318       .  A
N1439      C1443   1.341       .  A
N1440      C1441   1.347       .  A
C1441      C1442   1.396       .  A
C1441      H1444   1.081       .  S
C1442      C1443   1.390       .  A
C1442      C1569   1.500       .  S
C1443      H1445   1.081       .  S
N1446      C1450   1.346       .  A
N1447      N2274   1.324   1_565  A
N1447      C1448   1.348       .  A
C1448      C2277   1.391       .  A
C1448      H1451   1.081       .  S
C1449      C1450   1.389   1_565  A
C1449      C1602   1.494       .  S
C1450      H1452   1.081       .  S
N1453      N1454   1.318       .  A
N1453      C1457   1.347       .  A
N1453     Cu1461   2.090       .  S
N1454      C1455   1.342       .  A
N1454     Cu1460   2.059       .  S
C1455      C1456   1.390       .  A
C1455      H1458   1.081       .  S
C1456      C1457   1.397       .  A
C1456      C1584   1.502       .  S
C1457      H1459   1.080       .  S
Cu1461     N1471   2.091       .  S
Cu1462     N1464   2.084       .  S
Cu1462     N1470   2.086       .  S
N1463      N1464   1.320   1_545  A
N1463      C1467   1.340       .  A
N1463     Cu2288   2.059       .  S
N1464      C1465   1.348       .  A
C1465      C1466   1.393   1_565  A
C1465      H1468   1.082       .  S
C1466      C1467   1.386       .  A
C1466      C1582   1.493       .  S
C1467      H1469   1.081       .  S
N1470      N2299   1.323   1_565  A
N1470      C1474   1.346       .  A
N1471      C1472   1.347       .  A
C1472      C1473   1.391   1_545  A
C1472      H1475   1.081       .  S
C1473      C1624   1.494       .  S
C1474      C2301   1.390       .  A
C1474      H1476   1.081       .  S
N1477      N1478   1.315       .  A
N1477      C1481   1.344       .  A
N1477     Cu1485   2.081       .  S
N1478      C1479   1.340       .  A
N1478     Cu1484   2.042       .  S
C1479      C1480   1.389       .  A
C1479      H1482   1.080       .  S
C1480      C1481   1.398       .  A
C1480      C1525   1.501       .  S
C1481      H1483   1.080       .  S
Cu1485     N1495   2.085       .  S
Cu1486     N1488   2.080       .  S
Cu1486     N1494   2.084       .  S
N1487      N1488   1.317       .  A
N1487      C1491   1.335       .  A
N1488      C1489   1.348       .  A
C1489      C1490   1.394       .  A
C1489      H1492   1.082       .  S
C1490      C1491   1.383       .  A
C1490      C1527   1.491       .  S
C1491      H1493   1.081       .  S
N1494      C1498   1.345       .  A
N1495      C1496   1.345       .  A
C1496      C1497   1.388       .  A
C1496      H1499   1.081       .  S
C1497      C1646   1.492       .  S
C1498      H1500   1.081       .  S
N1501      N1502   1.322       .  A
N1501      C1505   1.345       .  A
N1501     Cu1509   2.074       .  S
N1502      C1503   1.346       .  A
N1502     Cu1508   2.082       .  S
C1503      C1504   1.388       .  A
C1503      H1506   1.082       .  S
C1504      C1505   1.385       .  A
C1504      C1540   1.488       .  S
C1505      H1507   1.082       .  S
Cu1509     N1519   2.075       .  S
Cu1510     N1512   2.091       .  S
N1511      N1512   1.320       .  A
N1511      C1515   1.345       .  A
N1512      C1513   1.345       .  A
C1513      C1514   1.393       .  A
C1513      H1516   1.082       .  S
C1514      C1515   1.391       .  A
C1514      C1538   1.502       .  S
C1515      H1517   1.079       .  S
N1518      N1519   1.321   1_545  A
N1519      C1520   1.345       .  A
C1520      C1521   1.388       .  A
C1520      H1523   1.081       .  S
C1521      C1591   1.491       .  S
C1522      H1524   1.081       .  S
C1525      C1526   1.404       .  A
C1525      C1530   1.428       .  A
C1526      C1527   1.398       .  A
C1526      H1545   1.080       .  S
C1527      C1528   1.421       .  A
C1528      C1529   1.414       .  A
C1528      C1535   1.403       .  A
C1529      C1530   1.422       .  A
C1529      C1534   1.430       .  A
C1530      C1531   1.405       .  A
C1531      C1532   1.391       .  A
C1531      H1541   1.077       .  S
C1532      C1533   1.404       .  A
C1532      H1542   1.081       .  S
C1533      C1534   1.415       .  A
C1533      C1540   1.415       .  A
C1534      C1537   1.426       .  A
C1535      C1536   1.387       .  A
C1535      H1543   1.079       .  S
C1536      C1537   1.404       .  A
C1536      H1544   1.069       .  S
C1537      C1538   1.430       .  A
C1538      C1539   1.405       .  A
C1539      C1540   1.400       .  A
C1539      H1546   1.084       .  S
C1547      C1548   1.398       .  A
C1547      C1552   1.422       .  A
C1548      C1549   1.399       .  A
C1548      H1567   1.084       .  S
C1549      C1550   1.421       .  A
C1550      C1551   1.421       .  A
C1550      C1557   1.405       .  A
C1551      C1552   1.424       .  A
C1551      C1556   1.430       .  A
C1552      C1553   1.403       .  A
C1553      C1554   1.389       .  A
C1553      H1563   1.077       .  S
C1554      C1555   1.406       .  A
C1554      H1564   1.076       .  S
C1555      C1556   1.421       .  A
C1555      C1562   1.421       .  A
C1556      C1559   1.424       .  A
C1557      C1558   1.387       .  A
C1557      H1565   1.075       .  S
C1558      C1559   1.402       .  A
C1558      H1566   1.076       .  S
C1559      C1560   1.422       .  A
C1560      C1561   1.397       .  A
C1561      C1562   1.398       .  A
C1561      H1568   1.084       .  S
C1569      C1570   1.408       .  A
C1569      C1574   1.424       .  A
C1570      C1571   1.404       .  A
C1570      H1589   1.079       .  S
C1571      C1572   1.421   1_545  A
C1572      C1573   1.418   1_565  A
C1572      C1579   1.405       .  A
C1573      C1574   1.416       .  A
C1573      C1578   1.425       .  A
C1574      C1575   1.407       .  A
C1575      C1576   1.395       .  A
C1575      H1585   1.081       .  S
C1576      C1577   1.405       .  A
C1576      H1586   1.081       .  S
C1577      C1578   1.418       .  A
C1577      C1584   1.425       .  A
C1578      C1581   1.415   1_545  A
C1579      C1580   1.391       .  A
C1579      H1587   1.081       .  S
C1580      C1581   1.406       .  A
C1580      H1588   1.081       .  S
C1581      C1582   1.419   1_565  A
C1583      H1590   1.079       .  S
C1592      H1605   1.082       .  S
C1593      C1594   1.401       .  A
C1595      C2422   1.401   1_545  A
C1595      C1596   1.401       .  A
C1595      H1607   1.083       .  S
C1596      C2419   1.408   1_545  A
C1596      H1608   1.081       .  S
C1597      C2422   1.448       .  S
C1597      C2426   1.211       .  T
C1598      C1599   1.448       .  S
C1599      C1604   1.400       .  A
C1600      C2427   1.401       .  A
C1600      C1601   1.402       .  A
C1600      H1609   1.083       .  S
C1601      C2430   1.409       .  A
C1601      H1610   1.081       .  S
C1603      H1611   1.082       .  S
C1614      C2441   1.408       .  A
C1614      C1615   1.401       .  A
C1614      H1627   1.082       .  S
C1615      C2444   1.400       .  A
C1615      H1628   1.083       .  S
C1616      C1619   1.446       .  S
C1617      C1618   1.400       .  A
C1617      H1629   1.083       .  S
C1618      H1630   1.082       .  S
C1619      C1620   1.210       .  T
C1620      C1621   1.446       .  S
C1622      C1623   1.401       .  A
C1622      H1631   1.084       .  S
C1623      H1632   1.081       .  S
C1625      C2452   1.410       .  A
C1625      C1626   1.401       .  A
C1625      H1633   1.081       .  S
C1626      C2449   1.400       .  A
C1626      H1634   1.084       .  S
C1635      C1640   1.409   1_565  A
C1636      C2187   1.409       .  A
C1636      C1637   1.400       .  A
C1636      H1649   1.081       .  S
C1637      C2466   1.399       .  A
C1637      H1650   1.083       .  S
C1638      C1639   1.400       .  A
C1638      C1641   1.445   1_556  S
C1639      H1651   1.084       .  S
C1640      H1652   1.082       .  S
C1641      C1642   1.209       .  T
C1642      C1643   1.445       .  S
C1643      C1644   1.400       .  A
C1644      H1653   1.083       .  S
C1645      C1646   1.410       .  A
C1645      H1654   1.081       .  S
C1647      C2198   1.409       .  A
C1647      C1648   1.400       .  A
C1647      H1655   1.082       .  S
C1648      C2471   1.400       .  A
C1648      H1656   1.083       .  S
N1657      N1658   1.322       .  A
N1657      C1661   1.343       .  A
N1657     Cu1665   2.077       .  S
N1658      C1659   1.345       .  A
C1659      C1660   1.387       .  A
C1659      H1662   1.082       .  S
C1660      C1661   1.386       .  A
C1660      C1825   1.489       .  S
C1661      H1663   1.082       .  S
Cu1664     N2219   2.074   1_545  S
Cu1665     N1675   2.077       .  S
Cu1666     N1668   2.078       .  S
Cu1666     N1674   2.078       .  S
N1667      N1668   1.322       .  A
N1667      C1671   1.347       .  A
N1667     Cu1940   2.077       .  S
N1668      C1669   1.343       .  A
C1669      C1670   1.386       .  A
C1669      H1672   1.082       .  S
C1670      C1671   1.389       .  A
C1670      C1823   1.492       .  S
C1671      H1673   1.082       .  S
N1674      C1678   1.346       .  A
N1675      C1676   1.347       .  A
C1676      C2229   1.389   1_545  A
C1676      H1679   1.082       .  S
C1677      C1952   1.390       .  A
C1677      C1911   1.492       .  S
C1678      H1680   1.081       .  S
N1681      N1682   1.322       .  A
N1681      C1685   1.344       .  A
N1681     Cu1689   2.084       .  S
N1682      C1683   1.345       .  A
N1682     Cu2240   2.069   1_545  S
C1683      C1684   1.386       .  A
C1683      H1686   1.082       .  S
C1684      C1685   1.388       .  A
C1684      C1836   1.490       .  S
C1685      H1687   1.082       .  S
Cu1688     N1958   2.069       .  S
Cu1689     N1699   2.084       .  S
Cu1690     N1692   2.071       .  S
Cu1690     N1698   2.070   1_655  S
N1691      N1692   1.321       .  A
N1691      C1695   1.345       .  A
N1692      C1693   1.341       .  A
C1693      C1694   1.386       .  A
C1693      H1696   1.082       .  S
C1694      C1695   1.386       .  A
C1694      C1838   1.487       .  S
C1695      H1697   1.081       .  S
N1698      C1702   1.345   1_455  A
N1699      C1700   1.347       .  A
C1700      C2253   1.389   1_545  A
C1700      H1703   1.081       .  S
C1701      C1976   1.392       .  A
C1701      C1889   1.492       .  S
C1702      H1704   1.081       .  S
N1705      N1706   1.319       .  A
N1705      C1709   1.350       .  A
N1705     Cu1713   2.095       .  S
N1706      C1707   1.342       .  A
C1707      C1708   1.387       .  A
C1707      H1710   1.081       .  S
C1708      C1709   1.396       .  A
C1708      C1847   1.499       .  S
C1709      H1711   1.082       .  S
Cu1712     N1715   2.066       .  S
Cu1713     N1723   2.097   1_655  S
Cu1714     N1716   2.086       .  S
Cu1714     N1722   2.088       .  S
N1715      N1716   1.319       .  A
N1715      C1719   1.342       .  A
N1716      C1717   1.347       .  A
C1717      C1718   1.396       .  A
C1717      H1720   1.081       .  S
C1718      C1719   1.390       .  A
C1718      C1845   1.502       .  S
C1719      H1721   1.081       .  S
N1722      C1726   1.347       .  A
N1723      C1724   1.347   1_455  A
C1724      H1727   1.081       .  S
C1725      C1726   1.390       .  A
C1725      C1878   1.496       .  S
C1726      H1728   1.081       .  S
N1729      N1730   1.318       .  A
N1729      C1733   1.347       .  A
N1729     Cu1737   2.090       .  S
N1730      C1731   1.342       .  A
N1730     Cu1736   2.059       .  S
C1731      C1732   1.390       .  A
C1731      H1734   1.081       .  S
C1732      C1733   1.398       .  A
C1732      C1860   1.503       .  S
C1733      H1735   1.081       .  S
Cu1737     N1747   2.091       .  S
Cu1738     N1740   2.083       .  S
Cu1738     N1746   2.084       .  S
N1739      N1740   1.320       .  A
N1739      C1743   1.339       .  A
N1740      C1741   1.348       .  A
C1741      C1742   1.393       .  A
C1741      H1744   1.081       .  S
C1742      C1743   1.386       .  A
C1742      C1858   1.494       .  S
C1743      H1745   1.081       .  S
N1746      C1750   1.346       .  A
N1747      C1748   1.347       .  A
C1748      C1749   1.390       .  A
C1748      H1751   1.081       .  S
C1749      C1900   1.491       .  S
C1750      H1752   1.081       .  S
N1753      N1754   1.316       .  A
N1753      C1757   1.345       .  A
N1753     Cu1761   2.083       .  S
N1754      C1755   1.340       .  A
N1754     Cu1760   2.044       .  S
C1755      C1756   1.389       .  A
C1755      H1758   1.080       .  S
C1756      C1757   1.397       .  A
C1756      C1801   1.500       .  S
C1757      H1759   1.080       .  S
Cu1760     N2039   2.041       .  S
Cu1761     N1771   2.086       .  S
Cu1762     N1764   2.087       .  S
Cu1762     N1770   2.090       .  S
N1763      N1764   1.318       .  A
N1763      C1767   1.336       .  A
N1763     Cu2312   2.041   1_545  S
N1764      C1765   1.349       .  A
C1765      C1766   1.395       .  A
C1765      H1768   1.082       .  S
C1766      C1767   1.382       .  A
C1766      C1803   1.492       .  S
C1767      H1769   1.081       .  S
N1770      N2323   1.324   1_545  A
N1770      C1774   1.347       .  A
N1771      N2046   1.324       .  A
N1771      C1772   1.345       .  A
C1772      C1773   1.389       .  A
C1772      H1775   1.081       .  S
C1773      C2050   1.389       .  A
C1773      C1922   1.491       .  S
C1774      C2325   1.390   1_545  A
C1774      H1776   1.081       .  S
N1777      N1778   1.322       .  A
N1777      C1781   1.345       .  A
N1777     Cu1785   2.075       .  S
N1778      C1779   1.346       .  A
N1778     Cu1784   2.079       .  S
C1779      C1780   1.387       .  A
C1779      H1782   1.082       .  S
C1780      C1781   1.384       .  A
C1780      C1816   1.487       .  S
C1781      H1783   1.082       .  S
Cu1784     N2063   2.077       .  S
Cu1785     N1795   2.076       .  S
Cu1786     N1788   2.085       .  S
Cu1786     N2346   2.085   1_545  S
N1787      N1788   1.320       .  A
N1787      C1791   1.346       .  A
N1787     Cu2336   2.081   1_545  S
N1788      C1789   1.345       .  A
C1789      C1790   1.392       .  A
C1789      H1792   1.082       .  S
C1790      C1791   1.393       .  A
C1790      C1814   1.504       .  S
C1791      H1793   1.078       .  S
N1794      N1795   1.321       .  A
N1794      C2074   1.348       .  A
N1794     Cu2062   2.089       .  S
N1795      C1796   1.346       .  A
C1796      C1797   1.389       .  A
C1796      H1799   1.081       .  S
C1797      C2074   1.392       .  A
C1797      C1867   1.493       .  S
C1798      N2346   1.347   1_545  A
C1798      C2349   1.391   1_545  A
C1798      H1800   1.081       .  S
C1801      C1802   1.404       .  A
C1801      C1806   1.427       .  A
C1802      C1803   1.398       .  A
C1802      H1821   1.080       .  S
C1803      C1804   1.422       .  A
C1804      C1805   1.415       .  A
C1804      C1811   1.403       .  A
C1805      C1806   1.421       .  A
C1805      C1810   1.430       .  A
C1806      C1807   1.405       .  A
C1807      C1808   1.391       .  A
C1807      H1817   1.078       .  S
C1808      C1809   1.405       .  A
C1808      H1818   1.081       .  S
C1809      C1810   1.415       .  A
C1809      C1816   1.415       .  A
C1810      C1813   1.426       .  A
C1811      C1812   1.387       .  A
C1811      H1819   1.078       .  S
C1812      C1813   1.404       .  A
C1812      H1820   1.064       .  S
C1813      C1814   1.431       .  A
C1814      C1815   1.405       .  A
C1815      C1816   1.401       .  A
C1815      H1822   1.084       .  S
C1823      C1824   1.398       .  A
C1823      C1828   1.423       .  A
C1824      C1825   1.398       .  A
C1824      H1843   1.085       .  S
C1825      C1826   1.421       .  A
C1826      C1827   1.422       .  A
C1826      C1833   1.405       .  A
C1827      C1828   1.424       .  A
C1827      C1832   1.431       .  A
C1828      C1829   1.403       .  A
C1829      C1830   1.389       .  A
C1829      H1839   1.076       .  S
C1830      C1831   1.405       .  A
C1830      H1840   1.076       .  S
C1831      C1832   1.422       .  A
C1831      C1838   1.422       .  A
C1832      C1835   1.424       .  A
C1833      C1834   1.388       .  A
C1833      H1841   1.075       .  S
C1834      C1835   1.403       .  A
C1834      H1842   1.076       .  S
C1835      C1836   1.422       .  A
C1836      C1837   1.395       .  A
C1837      C1838   1.398       .  A
C1837      H1844   1.085       .  S
C1845      C1846   1.409       .  A
C1845      C1850   1.424       .  A
C1846      C1847   1.404       .  A
C1846      H1865   1.079       .  S
C1847      C1848   1.421       .  A
C1848      C1849   1.418       .  A
C1848      C1855   1.405       .  A
C1849      C1850   1.416       .  A
C1849      C1854   1.426       .  A
C1850      C1851   1.407       .  A
C1851      C1852   1.395       .  A
C1851      H1861   1.081       .  S
C1852      C1853   1.405       .  A
C1852      H1862   1.081       .  S
C1853      C1854   1.418       .  A
C1853      C1860   1.425       .  A
C1854      C1857   1.415       .  A
C1855      C1856   1.391       .  A
C1855      H1863   1.081       .  S
C1856      C1857   1.406       .  A
C1856      H1864   1.081       .  S
C1857      C1858   1.419       .  A
C1858      C2135   1.403       .  A
C1859      C2410   1.403       .  A
C1859      C2412   1.407       .  A
C1859      H1866   1.079       .  S
C1860      C2135   1.406       .  A
C1867      C2144   1.410       .  A
C1868      C2419   1.409       .  A
C1868      C2421   1.402       .  A
C1868      H1881   1.082       .  S
C1869      C2144   1.402       .  A
C1869      C1870   1.401       .  A
C1869      H2158   1.083       .  S
C1871      C1872   1.402       .  A
C1871      H1883   1.083   1_455  S
C1872      H1884   1.081   1_455  S
C1874      C1875   1.449       .  S
C1875      C1880   1.400       .  A
C1876      C1877   1.402       .  A
C1876      H1885   1.083       .  S
C1877      H1886   1.081       .  S
C1878      C2155   1.410       .  A
C1879      C2430   1.410   1_545  A
C1879      C2432   1.402   1_545  A
C1879      H1887   1.081       .  S
C1880      C2155   1.402       .  A
C1880      H2164   1.083       .  S
H1882      C2421   1.083       .  S
H1888      C2432   1.083   1_545  S
C1889      C2170   1.409       .  A
C1890      C1891   1.400       .  A
C1890      H1903   1.081       .  S
C1891      H1904   1.083       .  S
C1892      C2169   1.400       .  A
C1892      C1895   1.446       .  S
C1893      C2444   1.401   1_545  A
C1893      C1894   1.401       .  A
C1893      H1905   1.083       .  S
C1894      C2441   1.407   1_545  A
C1894      H1906   1.082       .  S
C1895      C1896   1.210       .  T
C1896      C1897   1.446       .  S
C1897      C2174   1.400       .  A
C1898      C2449   1.400   1_545  A
C1898      C1899   1.401       .  A
C1898      H1907   1.083       .  S
C1899      C2452   1.409   1_545  A
C1899      H1908   1.081       .  S
C1900      C2175   1.409       .  A
C1901      C1902   1.400       .  A
C1901      H1909   1.081       .  S
C1902      H1910   1.083       .  S
C1911      C1916   1.410       .  A
C1912      C1913   1.401       .  A
C1912      H1925   1.082       .  S
C1913      H1926   1.083       .  S
C1914      C1915   1.401   1_565  A
C1914      C1917   1.446   1_556  S
C1915      C2468   1.402       .  A
C1915      H1927   1.083       .  S
C1916      C2191   1.401       .  A
C1916      H1928   1.081       .  S
C1917      C1918   1.210       .  T
C1918      C1919   1.446       .  S
C1919      C1920   1.399       .  A
C1920      C2473   1.400       .  A
C1920      H1929   1.083       .  S
C1921      C2196   1.400       .  A
C1921      C1922   1.409       .  A
C1921      H1930   1.081       .  S
C1923      C1924   1.401       .  A
C1923      H1931   1.081       .  S
C1924      H1932   1.083       .  S
N1933      N1934   1.322       .  A
N1933      C1937   1.344       .  A
N1933     Cu1941   2.075       .  S
N1934      C1935   1.345       .  A
C1935      C1936   1.387       .  A
C1935      H1938   1.082       .  S
C1936      C1937   1.386       .  A
C1936      C2101   1.490       .  S
C1937      H1939   1.082       .  S
Cu1941     N1951   2.074       .  S
Cu1942     N1944   2.085       .  S
Cu1942     N1950   2.085       .  S
N1943      N1944   1.322       .  A
N1943      C1947   1.347       .  A
N1943     Cu2216   2.077       .  S
N1944      C1945   1.344       .  A
C1945      C1946   1.388       .  A
C1945      H1948   1.082       .  S
C1946      C1947   1.389       .  A
C1946      C2099   1.494       .  S
C1947      H1949   1.082       .  S
N1950      C1954   1.346       .  A
N1951      C1952   1.345       .  A
C1952      H1955   1.081       .  S
C1953      C2228   1.390       .  A
C1953      C2187   1.493       .  S
C1954      H1956   1.081       .  S
N1957      N1958   1.322       .  A
N1957      C1961   1.344       .  A
N1957     Cu1965   2.085       .  S
N1958      C1959   1.345       .  A
C1959      C1960   1.386       .  A
C1959      H1962   1.082       .  S
C1960      C1961   1.388       .  A
C1960      C2112   1.491       .  S
C1961      H1963   1.082       .  S
Cu1964     N2234   2.070       .  S
Cu1965     N1975   2.085       .  S
Cu1966     N1968   2.072       .  S
Cu1966     N1974   2.072   1_655  S
N1967      N1968   1.322       .  A
N1967      C1971   1.344       .  A
N1968      C1969   1.343       .  A
C1969      C1970   1.385       .  A
C1969      H1972   1.082       .  S
C1970      C1971   1.386       .  A
C1970      C2114   1.486       .  S
C1971      H1973   1.082       .  S
N1974      C1978   1.345   1_455  A
N1975      C1976   1.346       .  A
C1976      H1979   1.081       .  S
C1977      C2252   1.388       .  A
C1977      C2165   1.485       .  S
C1978      H1980   1.082       .  S
N1981      N1982   1.320       .  A
N1981      C1985   1.350       .  A
N1981     Cu1989   2.095       .  S
N1982      C1983   1.342       .  A
C1983      C1984   1.387       .  A
C1983      H1986   1.082       .  S
C1984      C1985   1.395       .  A
C1984      C2123   1.499       .  S
C1985      H1987   1.081       .  S
Cu1988     N1991   2.066       .  S
Cu1989     N1999   2.097   1_655  S
Cu1990     N1992   2.086       .  S
Cu1990     N1998   2.088       .  S
N1991      N1992   1.319       .  A
N1991      C1995   1.341       .  A
N1992      C1993   1.348       .  A
C1993      C1994   1.396       .  A
C1993      H1996   1.081       .  S
C1994      C1995   1.390       .  A
C1994      C2121   1.501       .  S
C1995      H1997   1.081       .  S
N1998      C2002   1.347       .  A
N1999      C2000   1.348   1_455  A
C2000      H2003   1.081       .  S
C2001      C2002   1.388       .  A
C2001      C2154   1.493       .  S
C2002      H2004   1.081       .  S
N2005      N2006   1.318       .  A
N2005      C2009   1.346       .  A
N2005     Cu2013   2.089       .  S
N2006      C2007   1.343       .  A
N2006     Cu2012   2.060       .  S
C2007      C2008   1.391       .  A
C2007      H2010   1.081       .  S
C2008      C2009   1.397       .  A
C2008      C2136   1.503       .  S
C2009      H2011   1.080       .  S
Cu2013     N2023   2.090       .  S
Cu2014     N2016   2.084       .  S
Cu2014     N2022   2.085   1_655  S
N2015      N2016   1.319       .  A
N2015      C2019   1.339       .  A
N2016      C2017   1.348       .  A
C2017      C2018   1.393       .  A
C2017      H2020   1.082       .  S
C2018      C2019   1.386       .  A
C2018      C2134   1.494       .  S
C2019      H2021   1.081       .  S
N2022      C2026   1.345   1_455  A
N2023      C2024   1.347       .  A
C2024      C2025   1.391       .  A
C2024      H2027   1.081       .  S
C2025      C2176   1.492       .  S
C2026      H2028   1.081       .  S
N2029      N2030   1.315       .  A
N2029      C2033   1.345       .  A
N2029     Cu2037   2.085       .  S
N2030      C2031   1.340       .  A
N2030     Cu2036   2.041       .  S
C2031      C2032   1.389       .  A
C2031      H2034   1.080       .  S
C2032      C2033   1.398       .  A
C2032      C2077   1.502       .  S
C2033      H2035   1.080       .  S
Cu2036     N2315   2.039       .  S
Cu2037     N2047   2.088       .  S
Cu2038     N2040   2.081       .  S
Cu2038     N2046   2.084       .  S
N2039      N2040   1.318       .  A
N2039      C2043   1.335       .  A
N2040      C2041   1.348       .  A
C2041      C2042   1.394       .  A
C2041      H2044   1.082       .  S
C2042      C2043   1.383       .  A
C2042      C2079   1.491       .  S
C2043      H2045   1.081       .  S
N2046      C2050   1.346       .  A
N2047      N2322   1.324       .  A
N2047      C2048   1.346       .  A
C2048      C2049   1.388       .  A
C2048      H2051   1.081       .  S
C2049      C2326   1.387       .  A
C2049      C2198   1.489       .  S
C2050      H2052   1.081       .  S
N2053      N2054   1.321       .  A
N2053      C2057   1.345       .  A
N2053     Cu2061   2.074       .  S
N2054      C2055   1.345       .  A
N2054     Cu2060   2.075       .  S
C2055      C2056   1.387       .  A
C2055      H2058   1.082       .  S
C2056      C2057   1.385       .  A
C2056      C2092   1.486       .  S
C2057      H2059   1.082       .  S
Cu2060     N2339   2.073       .  S
Cu2061     N2071   2.075       .  S
Cu2062     N2064   2.089       .  S
N2063      N2064   1.320       .  A
N2063      C2067   1.346       .  A
N2064      C2065   1.344       .  A
C2065      C2066   1.394       .  A
C2065      H2068   1.082       .  S
C2066      C2067   1.394       .  A
C2066      C2090   1.506       .  S
C2067      H2069   1.076       .  S
N2070      N2071   1.321       .  A
N2070      C2350   1.348       .  A
N2070     Cu2338   2.091       .  S
N2071      C2072   1.345       .  A
C2072      C2073   1.388       .  A
C2072      H2075   1.081       .  S
C2073      C2350   1.392       .  A
C2073      C2143   1.492       .  S
C2074      H2076   1.081       .  S
C2077      C2078   1.404       .  A
C2077      C2082   1.429       .  A
C2078      C2079   1.398       .  A
C2078      H2097   1.079       .  S
C2079      C2080   1.419       .  A
C2080      C2081   1.413       .  A
C2080      C2087   1.402       .  A
C2081      C2082   1.422       .  A
C2081      C2086   1.430       .  A
C2082      C2083   1.405       .  A
C2083      C2084   1.391       .  A
C2083      H2093   1.077       .  S
C2084      C2085   1.405       .  A
C2084      H2094   1.081       .  S
C2085      C2086   1.414       .  A
C2085      C2092   1.414       .  A
C2086      C2089   1.426       .  A
C2087      C2088   1.387       .  A
C2087      H2095   1.079       .  S
C2088      C2089   1.404       .  A
C2088      H2096   1.060       .  S
C2089      C2090   1.431       .  A
C2090      C2091   1.405       .  A
C2091      C2092   1.400       .  A
C2091      H2098   1.084       .  S
C2099      C2100   1.399       .  A
C2099      C2104   1.423       .  A
C2100      C2101   1.399       .  A
C2100      H2119   1.084       .  S
C2101      C2102   1.422       .  A
C2102      C2103   1.421       .  A
C2102      C2109   1.405       .  A
C2103      C2104   1.424       .  A
C2103      C2108   1.431       .  A
C2104      C2105   1.403       .  A
C2105      C2106   1.388       .  A
C2105      H2115   1.076       .  S
C2106      C2107   1.405       .  A
C2106      H2116   1.076       .  S
C2107      C2108   1.421       .  A
C2107      C2114   1.421       .  A
C2108      C2111   1.424       .  A
C2109      C2110   1.388       .  A
C2109      H2117   1.076       .  S
C2110      C2111   1.403       .  A
C2110      H2118   1.076       .  S
C2111      C2112   1.423       .  A
C2112      C2113   1.397       .  A
C2113      C2114   1.398       .  A
C2113      H2120   1.085       .  S
C2121      C2122   1.409       .  A
C2121      C2126   1.424       .  A
C2122      C2123   1.405       .  A
C2122      H2141   1.080       .  S
C2123      C2124   1.421       .  A
C2124      C2125   1.418       .  A
C2124      C2131   1.405       .  A
C2125      C2126   1.416       .  A
C2125      C2130   1.426       .  A
C2126      C2127   1.407       .  A
C2127      C2128   1.395       .  A
C2127      H2137   1.081       .  S
C2128      C2129   1.405       .  A
C2128      H2138   1.081       .  S
C2129      C2130   1.418       .  A
C2129      C2136   1.425       .  A
C2130      C2133   1.415       .  A
C2131      C2132   1.391       .  A
C2131      H2139   1.081       .  S
C2132      C2133   1.405       .  A
C2132      H2140   1.081       .  S
C2133      C2134   1.419       .  A
C2134      C2411   1.402       .  A
C2135      H2142   1.079       .  S
C2136      C2411   1.407       .  A
C2143      C2420   1.410       .  A
C2144      H2157   1.082       .  S
C2145      C2420   1.402       .  A
C2145      C2146   1.401       .  A
C2145      H2434   1.083       .  S
C2147      C2148   1.402   1_455  A
C2147      H2159   1.083   1_455  S
C2148      H2160   1.082       .  S
C2150      C2151   1.449       .  S
C2151      C2156   1.401       .  A
C2152      C2153   1.402       .  A
C2152      H2161   1.083       .  S
C2153      H2162   1.082       .  S
C2154      C2431   1.409       .  A
C2155      H2163   1.081       .  S
C2156      C2431   1.402       .  A
C2156      H2440   1.083       .  S
C2165      C2446   1.407       .  A
C2166      C2167   1.400       .  A
C2166      H2179   1.082       .  S
C2167      H2180   1.083       .  S
C2168      C2445   1.400       .  A
C2168      C2171   1.444       .  S
C2169      C2170   1.401       .  A
C2169      H2181   1.083       .  S
C2170      H2182   1.081       .  S
C2171      C2172   1.209       .  T
C2172      C2173   1.445       .  S
C2173      C2450   1.400       .  A
C2174      C2175   1.401       .  A
C2174      H2183   1.083       .  S
C2175      H2184   1.081       .  S
C2176      C2451   1.409       .  A
C2177      C2178   1.400       .  A
C2177      H2185   1.081       .  S
C2178      H2186   1.084       .  S
C2187      C2192   1.410       .  A
C2188      C2189   1.400       .  A
C2188      H2201   1.081       .  S
C2189      H2202   1.083       .  S
C2190      C2191   1.400       .  A
C2190      C2193   1.445   1_556  S
C2191      H2203   1.083       .  S
C2192      C2467   1.401       .  A
C2192      H2204   1.081       .  S
C2193      C2194   1.209       .  T
C2194      C2195   1.445       .  S
C2195      C2196   1.399       .  A
C2196      H2205   1.083       .  S
C2197      C2472   1.401       .  A
C2197      C2198   1.408       .  A
C2197      H2206   1.082       .  S
C2199      C2200   1.400       .  A
C2199      H2207   1.081       .  S
C2200      H2208   1.083       .  S
N2209      N2210   1.322       .  A
N2209      C2213   1.342       .  A
N2209     Cu2217   2.070       .  S
N2210      C2211   1.345       .  A
C2211      C2212   1.388       .  A
C2211      H2214   1.082       .  S
C2212      C2213   1.385       .  A
C2212      C2377   1.489       .  S
C2213      H2215   1.082       .  S
Cu2217     N2227   2.070       .  S
Cu2218     N2220   2.085       .  S
Cu2218     N2226   2.084       .  S
N2219      N2220   1.322       .  A
N2219      C2223   1.347       .  A
N2220      C2221   1.345       .  A
C2221      C2222   1.388       .  A
C2221      H2224   1.082       .  S
C2222      C2223   1.388       .  A
C2222      C2375   1.492       .  S
C2223      H2225   1.082       .  S
N2226      C2230   1.346       .  A
N2227      C2228   1.345       .  A
C2228      H2231   1.081       .  S
C2229      C2463   1.490       .  S
C2230      H2232   1.081       .  S
N2233      N2234   1.321       .  A
N2233      C2237   1.344       .  A
N2233     Cu2241   2.077       .  S
N2234      C2235   1.345       .  A
C2235      C2236   1.388       .  A
C2235      H2238   1.082       .  S
C2236      C2237   1.388       .  A
C2236      C2388   1.491       .  S
C2237      H2239   1.082       .  S
Cu2241     N2251   2.076       .  S
Cu2242     N2244   2.068       .  S
Cu2242     N2250   2.068   1_655  S
N2243      N2244   1.321       .  A
N2243      C2247   1.344       .  A
N2244      C2245   1.341       .  A
C2245      C2246   1.385       .  A
C2245      H2248   1.082       .  S
C2246      C2247   1.387       .  A
C2246      C2390   1.486       .  S
C2247      H2249   1.082       .  S
N2250      C2254   1.345   1_455  A
N2251      C2252   1.345       .  A
C2252      H2255   1.081       .  S
C2253      C2441   1.486       .  S
C2254      H2256   1.082       .  S
N2257      N2258   1.319   1_565  A
N2257      C2261   1.349       .  A
N2257     Cu2265   2.094       .  S
N2258      C2259   1.342       .  A
C2259      C2260   1.388   1_545  A
C2259      H2262   1.081       .  S
C2260      C2261   1.395       .  A
C2260      C2399   1.499   1_565  S
C2261      H2263   1.081       .  S
Cu2264     N2267   2.063       .  S
Cu2265     N2275   2.096   1_655  S
Cu2266     N2268   2.085       .  S
Cu2266     N2274   2.087       .  S
N2267      N2268   1.318       .  A
N2267      C2271   1.341       .  A
N2268      C2269   1.347       .  A
C2269      C2270   1.396       .  A
C2269      H2272   1.081       .  S
C2270      C2271   1.390       .  A
C2270      C2397   1.500       .  S
C2271      H2273   1.081       .  S
N2274      C2278   1.346       .  A
N2275      C2276   1.348   1_455  A
C2276      H2279   1.081       .  S
C2277      C2278   1.389   1_565  A
C2277      C2430   1.494       .  S
C2278      H2280   1.081       .  S
N2281      N2282   1.318       .  A
N2281      C2285   1.347       .  A
N2281     Cu2289   2.090       .  S
N2282      C2283   1.342       .  A
N2282     Cu2288   2.059       .  S
C2283      C2284   1.390       .  A
C2283      H2286   1.081       .  S
C2284      C2285   1.397       .  A
C2284      C2412   1.502       .  S
C2285      H2287   1.081       .  S
Cu2289     N2299   2.091       .  S
Cu2290     N2292   2.084       .  S
Cu2290     N2298   2.086       .  S
N2291      N2292   1.320   1_545  A
N2291      C2295   1.340       .  A
N2292      C2293   1.348       .  A
C2293      C2294   1.393   1_565  A
C2293      H2296   1.082       .  S
C2294      C2295   1.385       .  A
C2294      C2410   1.493       .  S
C2295      H2297   1.081       .  S
N2298      C2302   1.346       .  A
N2299      C2300   1.347       .  A
C2300      C2301   1.391   1_545  A
C2300      H2303   1.081       .  S
C2301      C2452   1.494       .  S
C2302      H2304   1.081       .  S
N2305      N2306   1.315       .  A
N2305      C2309   1.344       .  A
N2305     Cu2313   2.081       .  S
N2306      C2307   1.340       .  A
N2306     Cu2312   2.042       .  S
C2307      C2308   1.389       .  A
C2307      H2310   1.080       .  S
C2308      C2309   1.398       .  A
C2308      C2353   1.501       .  S
C2309      H2311   1.080       .  S
Cu2313     N2323   2.085       .  S
Cu2314     N2316   2.080       .  S
Cu2314     N2322   2.084       .  S
N2315      N2316   1.317       .  A
N2315      C2319   1.335       .  A
N2316      C2317   1.348       .  A
C2317      C2318   1.394       .  A
C2317      H2320   1.082       .  S
C2318      C2319   1.383       .  A
C2318      C2355   1.491       .  S
C2319      H2321   1.081       .  S
N2322      C2326   1.345       .  A
N2323      C2324   1.345       .  A
C2324      C2325   1.388       .  A
C2324      H2327   1.081       .  S
C2325      C2474   1.492       .  S
C2326      H2328   1.081       .  S
N2329      N2330   1.322       .  A
N2329      C2333   1.345       .  A
N2329     Cu2337   2.074       .  S
N2330      C2331   1.346       .  A
N2330     Cu2336   2.082       .  S
C2331      C2332   1.388       .  A
C2331      H2334   1.082       .  S
C2332      C2333   1.385       .  A
C2332      C2368   1.488       .  S
C2333      H2335   1.082       .  S
Cu2337     N2347   2.075       .  S
Cu2338     N2340   2.091       .  S
N2339      N2340   1.320       .  A
N2339      C2343   1.345       .  A
N2340      C2341   1.345       .  A
C2341      C2342   1.393       .  A
C2341      H2344   1.082       .  S
C2342      C2343   1.391       .  A
C2342      C2366   1.503       .  S
C2343      H2345   1.079       .  S
N2346      N2347   1.321       .  A
N2347      C2348   1.345       .  A
C2348      C2349   1.389       .  A
C2348      H2351   1.081       .  S
C2349      C2419   1.491       .  S
C2350      H2352   1.081       .  S
C2353      C2354   1.404       .  A
C2353      C2358   1.428       .  A
C2354      C2355   1.398       .  A
C2354      H2373   1.080       .  S
C2355      C2356   1.421       .  A
C2356      C2357   1.414       .  A
C2356      C2363   1.403       .  A
C2357      C2358   1.422       .  A
C2357      C2362   1.430       .  A
C2358      C2359   1.405       .  A
C2359      C2360   1.391       .  A
C2359      H2369   1.077       .  S
C2360      C2361   1.404       .  A
C2360      H2370   1.081       .  S
C2361      C2362   1.415       .  A
C2361      C2368   1.415       .  A
C2362      C2365   1.426       .  A
C2363      C2364   1.387       .  A
C2363      H2371   1.079       .  S
C2364      C2365   1.404       .  A
C2364      H2372   1.069       .  S
C2365      C2366   1.431       .  A
C2366      C2367   1.405       .  A
C2367      C2368   1.400       .  A
C2367      H2374   1.084       .  S
C2375      C2376   1.398       .  A
C2375      C2380   1.422       .  A
C2376      C2377   1.399       .  A
C2376      H2395   1.084       .  S
C2377      C2378   1.421       .  A
C2378      C2379   1.421       .  A
C2378      C2385   1.405       .  A
C2379      C2380   1.424       .  A
C2379      C2384   1.430       .  A
C2380      C2381   1.403       .  A
C2381      C2382   1.389       .  A
C2381      H2391   1.077       .  S
C2382      C2383   1.406       .  A
C2382      H2392   1.076       .  S
C2383      C2384   1.421       .  A
C2383      C2390   1.421       .  A
C2384      C2387   1.424       .  A
C2385      C2386   1.387       .  A
C2385      H2393   1.075       .  S
C2386      C2387   1.402       .  A
C2386      H2394   1.076       .  S
C2387      C2388   1.422       .  A
C2388      C2389   1.397       .  A
C2389      C2390   1.398       .  A
C2389      H2396   1.084       .  S
C2397      C2398   1.408       .  A
C2397      C2402   1.424       .  A
C2398      C2399   1.404       .  A
C2398      H2417   1.079       .  S
C2399      C2400   1.421   1_545  A
C2400      C2401   1.418   1_565  A
C2400      C2407   1.405       .  A
C2401      C2402   1.416       .  A
C2401      C2406   1.425       .  A
C2402      C2403   1.407       .  A
C2403      C2404   1.395       .  A
C2403      H2413   1.081       .  S
C2404      C2405   1.405       .  A
C2404      H2414   1.081       .  S
C2405      C2406   1.418       .  A
C2405      C2412   1.425       .  A
C2406      C2409   1.415   1_545  A
C2407      C2408   1.391       .  A
C2407      H2415   1.081       .  S
C2408      C2409   1.406       .  A
C2408      H2416   1.081       .  S
C2409      C2410   1.419   1_565  A
C2411      H2418   1.079       .  S
C2420      H2433   1.082       .  S
C2421      C2422   1.401       .  A
C2423      C2424   1.401       .  A
C2423      H2435   1.083   1_455  S
C2424      H2436   1.082   1_455  S
C2426      C2427   1.448       .  S
C2427      C2432   1.400       .  A
C2428      C2429   1.402       .  A
C2428      H2437   1.083       .  S
C2429      H2438   1.081       .  S
C2431      H2439   1.082       .  S
C2442      C2443   1.401       .  A
C2442      H2455   1.082       .  S
C2443      H2456   1.083       .  S
C2444      C2447   1.446       .  S
C2445      C2446   1.400       .  A
C2445      H2457   1.083       .  S
C2446      H2458   1.082       .  S
C2447      C2448   1.210       .  T
C2448      C2449   1.446       .  S
C2450      C2451   1.401       .  A
C2450      H2459   1.083       .  S
C2451      H2460   1.081       .  S
C2453      C2454   1.401       .  A
C2453      H2461   1.081       .  S
C2454      H2462   1.084       .  S
C2463      C2468   1.409   1_565  A
C2464      C2465   1.400       .  A
C2464      H2477   1.081       .  S
C2465      H2478   1.083       .  S
C2466      C2467   1.400       .  A
C2466      C2469   1.445   1_556  S
C2467      H2479   1.084       .  S
C2468      H2480   1.082       .  S
C2469      C2470   1.209       .  T
C2470      C2471   1.445       .  S
C2471      C2472   1.400       .  A
C2472      H2481   1.083       .  S
C2473      C2474   1.410       .  A
C2473      H2482   1.081       .  S
C2475      C2476   1.400       .  A
C2475      H2483   1.082       .  S
C2476      H2484   1.083       .  S
