geometry optimzed in LAMMPS
_audit_creation_date              2020-12-01 
_audit_creation_method            'lammps2cif' 
_symmetry_space_group_name_H-M    'P1' 
_symmetry_Int_Tables_number       1 
_symmetry_cell_setting            triclinic 
loop_ 
_symmetry_equiv_pos_as_xyz 
  x,y,z 
_cell_length_a                    26.43801369 
_cell_length_b                    27.485350575902597 
_cell_length_c                    28.19062198939617 
_cell_angle_alpha                 90.4660914694621 
_cell_angle_beta                  90.11589472959822 
_cell_angle_gamma                 89.98367323521975 
loop_ 
_atom_site_label 
_atom_site_type_symbol 
_atom_site_fract_x 
_atom_site_fract_y 
_atom_site_fract_z 
_atom_site_charge 
C1          C  0.25772711  0.21118264  0.27545689     0.80200
N2          N  0.29475361  0.21351459  0.24214603    -0.78100
C3          C  0.29603233  0.25052519  0.21046006     0.82700
N4          N  0.25977482  0.28541278  0.21168417    -0.78000
C5          C  0.22267626  0.28359058  0.24470813     0.82700
N6          N  0.22177931  0.24666310  0.27635533    -0.79800
O7          O  0.04693509  0.44553847  0.21606423    -0.74400
O8          O  0.94018344  0.53924393  0.22303545    -0.74500
O9          O  0.04209568  0.54376864  0.22130333    -0.74500
O10         O  0.94452112  0.44149713  0.21814239    -0.74600
O11         O  0.94652526  0.43767737  0.29667746    -0.74500
O12         O  0.04402932  0.54069977  0.30023457    -0.74500
O13         O  0.94185166  0.53605450  0.30166097    -0.74500
O14         O  0.04944835  0.44256207  0.29507780    -0.74500
Ni15       Ni  0.99342041  0.49256312  0.21687263     1.25400
Ni16       Ni  0.99552559  0.48900875  0.30126465     1.25400
C17         C  0.06623697  0.42915738  0.25442491     0.87700
C18         C  0.92324429  0.55341410  0.26341334     0.87700
C19         C  0.05865312  0.55956502  0.26120832     0.87700
C20         C  0.92865809  0.42290169  0.25673702     0.87900
C21         C  0.76904569  0.70411506  0.26161365     0.80200
N22         N  0.76766401  0.73679908  0.29811411    -0.78100
C23         C  0.73150268  0.77198688  0.29980766     0.82700
N24         N  0.69699666  0.77451283  0.26411093    -0.78000
C25         C  0.69782854  0.74171889  0.22797373     0.82700
N26         N  0.73375064  0.70664547  0.22682908    -0.79800
O27         O  0.21154852  0.95822823  0.54359948    -0.74400
O28         O  0.20770918  0.04870292  0.44036413    -0.74500
O29         O  0.20861780  0.95012365  0.44729793    -0.74500
O30         O  0.20986035  0.05608185  0.53629086    -0.74600
O31         O  0.29370106  0.05700211  0.53480012    -0.74500
O32         O  0.29301164  0.95101179  0.44505839    -0.74500
O33         O  0.29199285  0.04927640  0.43860273    -0.74500
O34         O  0.29578782  0.95871868  0.54128193    -0.74500
Ni35       Ni  0.20644460  0.00316169  0.49185678     1.25400
Ni36       Ni  0.29661850  0.00399143  0.48983637     1.25400
C37         C  0.25438595  0.94438254  0.56006784     0.87700
C38         C  0.24934114  0.06441664  0.42298740     0.87700
C39         C  0.25051096  0.93332847  0.43144798     0.87700
C40         C  0.25175260  0.07404639  0.55081380     0.87900
O41         O  0.77671804  0.93841101  0.45607234    -0.74400
O42         O  0.78848394  0.03967885  0.54933532    -0.74500
O43         O  0.78318122  0.94169024  0.55181178    -0.74500
O44         O  0.78182311  0.03699640  0.45363188    -0.74600
O45         O  0.69794844  0.04137944  0.45877379    -0.74500
O46         O  0.69913823  0.94552889  0.55650302    -0.74500
O47         O  0.70484196  0.04409053  0.55441171    -0.74500
O48         O  0.69256681  0.94294841  0.46040636    -0.74500
Ni49       Ni  0.78550678  0.98899019  0.50248171     1.25400
Ni50       Ni  0.69559720  0.99358493  0.50768777     1.25400
C51         C  0.73278717  0.92420346  0.44277775     0.87700
C52         C  0.74882941  0.05903181  0.56724502     0.87700
C53         C  0.74153638  0.92840601  0.57076295     0.87700
C54         C  0.73962080  0.05556825  0.44052424     0.87900
C55         C  0.28410895  0.77481898  0.78654112     0.80200
N56         N  0.28878624  0.80774669  0.75102579    -0.78100
C57         C  0.25696990  0.80600213  0.71308883     0.82700
N58         N  0.22075285  0.77094625  0.71051655    -0.78000
C59         C  0.21654208  0.73764775  0.74562392     0.82700
N60         N  0.24823113  0.73971241  0.78341115    -0.79800
O61         O  0.06563081  0.46328284  0.70406744    -0.74400
O62         O  0.95608900  0.55412073  0.70643086    -0.74500
O63         O  0.05783380  0.56191351  0.70542026    -0.74500
O64         O  0.96355490  0.45569783  0.70536300    -0.74600
O65         O  0.96512724  0.45569991  0.78435668    -0.74500
O66         O  0.05837666  0.56224456  0.78452391    -0.74500
O67         O  0.95679669  0.55382724  0.78527324    -0.74500
O68         O  0.06718842  0.46315718  0.78304773    -0.74500
Ni69       Ni  0.01081520  0.50873302  0.70252340     1.25400
Ni70       Ni  0.01205206  0.50867325  0.78712538     1.25400
C71         C  0.08418332  0.44774584  0.74304790     0.87700
C72         C  0.93826441  0.56915413  0.74605276     0.87700
C73         C  0.07258265  0.58028552  0.74501925     0.87700
C74         C  0.94822726  0.43867928  0.74502700     0.87900
C75         C  0.73209608  0.24502796  0.78550906     0.80200
N76         N  0.76801386  0.27999934  0.78218845    -0.78100
C77         C  0.80059674  0.28083500  0.74482879     0.82700
N78         N  0.79568475  0.24610108  0.71035670    -0.78000
C79         C  0.75981161  0.21057289  0.71336639     0.82700
N80         N  0.72892051  0.21017177  0.75154248    -0.79800
O81         O  0.54463256  0.79996745  0.05651113    -0.74400
O82         O  0.44585140  0.80678546  0.95750635    -0.74500
O83         O  0.44257084  0.80093351  0.05363585    -0.74500
O84         O  0.54799265  0.80503374  0.96043895    -0.74600
O85         O  0.54727047  0.72439249  0.95674588    -0.74500
O86         O  0.44078302  0.72031810  0.04770545    -0.74500
O87         O  0.44551924  0.72571920  0.95192546    -0.74500
O88         O  0.54257946  0.71900648  0.05255262    -0.74500
Ni89       Ni  0.49528642  0.80609671  0.00721278     1.25400
Ni90       Ni  0.49402273  0.71950421  0.00205461     1.25400
C91         C  0.55959299  0.75843673  0.07111279     0.87700
C92         C  0.43011757  0.76739384  0.93803366     0.87700
C93         C  0.42432205  0.75990200  0.06634184     0.87700
C94         C  0.56487525  0.76523727  0.94266488     0.87900
O95         O  0.55863823  0.19864412  0.94561171    -0.74400
O96         O  0.45390723  0.20295598  0.03910944    -0.74500
O97         O  0.45681236  0.20489876  0.94273392    -0.74500
O98         O  0.55563225  0.19628455  0.04180506    -0.74600
O99         O  0.56182812  0.27722623  0.04390842    -0.74500
O100        O  0.46163166  0.28559586  0.94580259    -0.74500
O101        O  0.45972838  0.28370960  0.04230736    -0.74500
O102        O  0.56362505  0.27932690  0.94814551    -0.74500
Ni103      Ni  0.50601143  0.19783010  0.99222838     1.25400
Ni104      Ni  0.51181716  0.28435648  0.99511267     1.25400
C105        C  0.57855800  0.23832136  0.93133354     0.87700
C106        C  0.43983154  0.24391918  0.05652329     0.87700
C107        C  0.44351250  0.24667694  0.92715050     0.87700
C108        C  0.57494934  0.23529573  0.05909513     0.87900
C109        C  0.74319787  0.78483209  0.71838088     0.80200
N110        N  0.78014931  0.75051270  0.71810903    -0.78100
C111        C  0.78383339  0.71844485  0.75433993     0.82700
N112        N  0.75005733  0.72059769  0.79036602    -0.78000
C113        C  0.71281221  0.75450067  0.79076688     0.82700
N114        N  0.70986420  0.78705659  0.75488454    -0.79800
C115        C  0.70968619  0.22968581  0.22079708     0.80200
N116        N  0.71011681  0.19536155  0.25519000    -0.78100
C117        C  0.74281417  0.19902192  0.29226274     0.82700
N118        N  0.77548943  0.23693961  0.29494186    -0.78000
C119        C  0.77548667  0.27146715  0.26090690     0.82700
N120        N  0.74277711  0.26738155  0.22391167    -0.79800
C121        C  0.22995031  0.29112212  0.73867476     0.80200
N122        N  0.22938839  0.25867361  0.70206188    -0.78100
C123        C  0.26374757  0.22179179  0.70024604     0.82700
N124        N  0.29826649  0.21745350  0.73585784    -0.78000
C125        C  0.29909956  0.25007339  0.77235385     0.82700
N126        N  0.26521800  0.28704719  0.77331188    -0.79800
C127        C  0.27966497  0.74363754  0.21972915     0.80200
N128        N  0.24518071  0.70741948  0.22407844    -0.78100
C129        C  0.21299743  0.70702620  0.26151504     0.82700
N130        N  0.21419392  0.74379778  0.29391107    -0.78000
C131        C  0.24787374  0.78078536  0.28931626     0.82700
N132        N  0.28062506  0.78025278  0.25233688    -0.79800
C133        C  0.37233175  0.21046507  0.88144879    -0.05800
C134        C  0.40682018  0.24918063  0.88696778     0.00100
C135        C  0.40647463  0.28746052  0.85318535    -0.08400
C136        C  0.37133937  0.28541424  0.81562782    -0.05800
C137        C  0.33715573  0.24683584  0.81053568     0.00100
C138        C  0.33711047  0.20884032  0.84396053    -0.08300
C139        C  0.29872382  0.16785332  0.84095678     0.62000
H140        H  0.37262054  0.18155734  0.90731721     0.12700
H141        H  0.36983489  0.31439759  0.78983980     0.12700
C142        C  0.44300872  0.33012122  0.85582253     0.62300
F143        F  0.30296165  0.13626866  0.87876594    -0.22900
F144        F  0.30588836  0.14141053  0.79959385    -0.20200
F145        F  0.25030157  0.18696134  0.84122327    -0.19900
F146        F  0.43238858  0.35842831  0.89534319    -0.20000
F147        F  0.43936882  0.35968579  0.81641761    -0.20300
F148        F  0.49224930  0.31327060  0.85826233    -0.23000
C149        C  0.59453701  0.20938855  0.14032310    -0.05800
C150        C  0.61116961  0.23170426  0.09869489     0.00100
C151        C  0.66103031  0.24985183  0.09595923    -0.08400
C152        C  0.69221168  0.24668164  0.13624110    -0.05800
C153        C  0.67510885  0.22632968  0.17904891     0.00100
C154        C  0.62540954  0.20650975  0.18095997    -0.08300
C155        C  0.60388405  0.18378702  0.22555890     0.62000
H156        H  0.55633287  0.19517114  0.14097523     0.12700
H157        H  0.73033557  0.26095193  0.13467543     0.12700
C158        C  0.68135604  0.27208033  0.05067058     0.62300
F159        F  0.55329402  0.17178911  0.22035791    -0.22900
F160        F  0.60778226  0.21615149  0.26322525    -0.20200
F161        F  0.62988401  0.14149324  0.23584533    -0.19900
F162        F  0.67321428  0.24073161  0.01282752    -0.20000
F163        F  0.73282311  0.28103568  0.05354121    -0.20300
F164        F  0.65709309  0.31568395  0.04208310    -0.23000
C165        C  0.61669092  0.71941124  0.88443064    -0.05800
C166        C  0.60418599  0.76501714  0.90448152     0.00100
C167        C  0.62820273  0.80748436  0.88639271    -0.08400
C168        C  0.66382102  0.80201607  0.84958395    -0.05800
C169        C  0.67593951  0.75638679  0.83012495     0.00100
C170        C  0.65156443  0.71426548  0.84731279    -0.08300
C171        C  0.66051333  0.66411387  0.82559489     0.62000
H172        H  0.59846680  0.68706849  0.89773467     0.12700
H173        H  0.68278695  0.83364152  0.83544140     0.12700
C174        C  0.61675914  0.85850655  0.90477405     0.62300
F175        F  0.70845178  0.64789276  0.83711106    -0.22900
F176        F  0.65549588  0.66615507  0.77677992    -0.20200
F177        F  0.62617018  0.63015161  0.84193499    -0.19900
F178        F  0.62708656  0.86150589  0.95281112    -0.20000
F179        F  0.56650808  0.86967218  0.89654528    -0.20300
F180        F  0.64569605  0.89351341  0.88248484    -0.23000
C181        C  0.37939262  0.71211200  0.12734766    -0.05800
C182        C  0.38496861  0.75701269  0.10409798     0.00100
C183        C  0.35344644  0.79667183  0.11781425    -0.08400
C184        C  0.31869900  0.78984257  0.15489481    -0.05800
C185        C  0.31426006  0.74540129  0.17859399     0.00100
C186        C  0.34461916  0.70548924  0.16439014    -0.08300
C187        C  0.34172718  0.65655843  0.18901020     0.62000
H188        H  0.40328401  0.68196125  0.11679832     0.12700
H189        H  0.29455890  0.81957795  0.16606254     0.12700
C190        C  0.35563113  0.84602426  0.09390381     0.62300
F191        F  0.37889306  0.62481609  0.17330662    -0.22900
F192        F  0.29534137  0.63515313  0.18000319    -0.20200
F193        F  0.34792648  0.66282560  0.23740789    -0.19900
F194        F  0.35001534  0.84037184  0.04536251    -0.19600
F195        F  0.40135610  0.86831682  0.10392232    -0.20300
F196        F  0.31759814  0.87682502  0.10956760    -0.23000
C197        C  0.62495111  0.28075330  0.86794036    -0.05800
C198        C  0.61873198  0.23794249  0.89436858     0.00100
C199        C  0.65103632  0.19751714  0.88502979    -0.08400
C200        C  0.68877964  0.20227692  0.85021141    -0.05800
C201        C  0.69493046  0.24525392  0.82444759     0.00100
C202        C  0.66204427  0.28498257  0.83268661    -0.08300
C203        C  0.66483472  0.33113519  0.80349802     0.62000
H204        H  0.59990544  0.31117140  0.87469923     0.12700
H205        H  0.71361931  0.17199057  0.84213152     0.12700
C206        C  0.64617522  0.14940164  0.91090182     0.62300
F207        F  0.62439594  0.36188171  0.81239731    -0.22900
F208        F  0.66434239  0.31970240  0.75560675    -0.20200
F209        F  0.70871025  0.35603031  0.81449114    -0.19900
F210        F  0.64856643  0.15703121  0.95939600    -0.20000
F211        F  0.68448829  0.11726042  0.89886907    -0.20300
F212        F  0.60068003  0.12756184  0.89911177    -0.23000
C213        C  0.12005097  0.37176329  0.77519042    -0.05800
C214        C  0.12383241  0.40947209  0.74202245     0.00100
C215        C  0.16372829  0.40851282  0.70828003    -0.08400
C216        C  0.19748676  0.36891077  0.70820871    -0.05800
C217        C  0.19285344  0.33104096  0.74077254     0.00100
C218        C  0.15383043  0.33222915  0.77497380    -0.08300
C219        C  0.14691863  0.29095695  0.80985602     0.62000
H220        H  0.08941035  0.37283824  0.80061929     0.12700
H221        H  0.22796730  0.36714080  0.68262026     0.12700
C222        C  0.17178958  0.44946917  0.67333258     0.62300
F223        F  0.10468598  0.29770704  0.83810825    -0.22900
F224        F  0.18868466  0.28780927  0.83924192    -0.20200
F225        F  0.14114733  0.24753003  0.78528468    -0.19900
F226        F  0.17063777  0.49363225  0.69701818    -0.20000
F227        F  0.13435922  0.44837739  0.63904189    -0.20300
F228        F  0.21808445  0.44577147  0.65069383    -0.23000
C229        C  0.89396322  0.63650381  0.78737066    -0.05800
C230        C  0.89706013  0.60609994  0.74707738     0.00100
C231        C  0.86149536  0.61228645  0.70959387    -0.08400
C232        C  0.82561708  0.64995127  0.71338234    -0.05800
C233        C  0.82301156  0.68019013  0.75352268     0.00100
C234        C  0.85739131  0.67339460  0.79142394    -0.08300
C235        C  0.85640546  0.70559687  0.83549897     0.62000
H236        H  0.92094996  0.63147972  0.81584175     0.12700
H237        H  0.79860075  0.65583404  0.68506062     0.12700
C238        C  0.85975859  0.57879217  0.66640939     0.62300
F239        F  0.89770820  0.69737334  0.86462995    -0.22900
F240        F  0.81319103  0.69628433  0.86140343    -0.20200
F241        F  0.85708271  0.75406838  0.82266517    -0.19900
F242        F  0.81739314  0.58711443  0.63866485    -0.20000
F243        F  0.85819524  0.53078708  0.68076381    -0.20300
F244        F  0.90184588  0.58626538  0.63836805    -0.23000
C245        C  0.83358913  0.36057222  0.77359549    -0.05800
C246        C  0.83959892  0.32071409  0.74222834     0.00100
C247        C  0.88240460  0.32048631  0.71134241    -0.08400
C248        C  0.91653246  0.35999644  0.71333547    -0.05800
C249        C  0.91036069  0.39886395  0.74531176     0.00100
C250        C  0.86794315  0.39949654  0.77581052    -0.08300
C251        C  0.85805581  0.44146043  0.81012017     0.62000
H252        H  0.80160638  0.36120937  0.79725841     0.12700
H253        H  0.94917669  0.36060630  0.69021790     0.12700
C254        C  0.89356635  0.27895966  0.67701222     0.62300
F255        F  0.81068457  0.43843845  0.83074136    -0.22900
F256        F  0.86055733  0.48526618  0.78641710    -0.20200
F257        F  0.89362403  0.44100436  0.84613688    -0.19900
F258        F  0.85593790  0.27614273  0.64295533    -0.20000
F259        F  0.89672202  0.23568859  0.70154991    -0.20300
F260        F  0.93902959  0.28526081  0.65354293    -0.23000
C261        C  0.34230308  0.77524917  0.91015821    -0.05800
C262        C  0.39355187  0.77008599  0.89890533     0.00100
C263        C  0.40898925  0.76723724  0.85100874    -0.08400
C264        C  0.37199430  0.77030448  0.81528899    -0.05800
C265        C  0.32045990  0.77453062  0.82635747     0.00100
C266        C  0.30502656  0.77684185  0.87452573    -0.08300
C267        C  0.24974091  0.78154196  0.88836912     0.62000
H268        H  0.33172442  0.77712553  0.94724109     0.12700
H269        H  0.38290612  0.76827733  0.77830465     0.12700
C270        C  0.46430766  0.76101906  0.83799875     0.62300
F271        F  0.24397795  0.78893256  0.93671610    -0.22900
F272        F  0.22403694  0.73947104  0.87616767    -0.20200
F273        F  0.22816943  0.82062842  0.86527843    -0.19900
F274        F  0.48294189  0.71869215  0.85767150    -0.20000
F275        F  0.49175198  0.80020289  0.85514963    -0.20300
F276        F  0.47121979  0.75821829  0.78938722    -0.23000
C277        C  0.13271455  0.70457348  0.76642226    -0.05800
C278        C  0.17879113  0.69838859  0.74264317     0.00100
C279        C  0.18938738  0.65397847  0.71911259    -0.08400
C280        C  0.15313850  0.61671880  0.72011538    -0.05800
C281        C  0.10760157  0.62215322  0.74485561     0.00100
C282        C  0.09644345  0.66704899  0.76772853    -0.08300
C283        C  0.04591508  0.67592568  0.79176985     0.62000
H284        H  0.12562432  0.73893386  0.78427624     0.12700
H285        H  0.16032738  0.58274337  0.70190897     0.12700
C286        C  0.23879250  0.64609847  0.69301759     0.62300
F287        F  0.04120468  0.64615174  0.83077876    -0.22900
F288        F  0.00711816  0.66616938  0.76014001    -0.20200
F289        F  0.04086520  0.72368813  0.80705986    -0.19900
F290        F  0.27910920  0.65338149  0.72361125    -0.20000
F291        F  0.24181368  0.67856714  0.65607620    -0.20300
F292        F  0.24256779  0.59950957  0.67431597    -0.23000
C293        C  0.77570276  0.08971519  0.36704993    -0.05800
C294        C  0.73935590  0.09337602  0.40326059     0.00100
C295        C  0.70507260  0.13329688  0.40350637    -0.08400
C296        C  0.70707439  0.16674254  0.36604525    -0.05800
C297        C  0.74272561  0.16220780  0.32970957     0.00100
C298        C  0.77812431  0.12378715  0.33023476    -0.08300
C299        C  0.81793890  0.11894705  0.29178232     0.62000
H300        H  0.80207839  0.05956764  0.36756205     0.12700
H301        H  0.68091784  0.19707108  0.36489700     0.12700
C302        C  0.66773800  0.14191976  0.44364832     0.62300
F303        F  0.84827962  0.07847468  0.29826461    -0.22900
F304        F  0.84865553  0.15966933  0.29211689    -0.20200
F305        F  0.79467550  0.11472057  0.24795407    -0.19900
F306        F  0.69250017  0.13979004  0.48688475    -0.20000
F307        F  0.63001946  0.10712335  0.44195383    -0.20300
F308        F  0.64496678  0.18717144  0.44065667    -0.23000
C309        C  0.70817816  0.85337010  0.60692568    -0.05800
C310        C  0.74225490  0.89251500  0.60946300     0.00100
C311        C  0.77533406  0.89699389  0.64897424    -0.08400
C312        C  0.77440092  0.86074785  0.68381955    -0.05800
C313        C  0.74117196  0.82126657  0.68061790     0.00100
C314        C  0.70716878  0.81734058  0.64206573    -0.08300
C315        C  0.67078321  0.77482722  0.63797591     0.62000
H316        H  0.68287692  0.85085064  0.57673113     0.12700
H317        H  0.79967253  0.86290810  0.71406951     0.12700
C318        C  0.81015825  0.94055091  0.65537222     0.62300
F319        F  0.64133949  0.77742804  0.59740028    -0.22900
F320        F  0.63885938  0.77449041  0.67676896    -0.20200
F321        F  0.69770048  0.73168238  0.63644758    -0.19900
F322        F  0.78271846  0.98317712  0.65118550    -0.20000
F323        F  0.84782700  0.93940581  0.62146150    -0.20300
F324        F  0.83315922  0.94094154  0.69954049    -0.23000
C325        C  0.70995163  0.10956292  0.63078538    -0.05800
C326        C  0.75318810  0.09868914  0.60374241     0.00100
C327        C  0.79801624  0.12627867  0.61193164    -0.08400
C328        C  0.79805576  0.16178978  0.64819760    -0.05800
C329        C  0.75508871  0.17218768  0.67567156     0.00100
C330        C  0.70949945  0.14617773  0.66598454    -0.08300
C331        C  0.65979331  0.15698567  0.69125738     0.62000
H332        H  0.67592014  0.08864269  0.62437615     0.12700
H333        H  0.83248207  0.18153595  0.65574154     0.12700
C334        C  0.84573157  0.11963225  0.58249947     0.62300
F335        F  0.61934906  0.13307920  0.67022922    -0.22900
F336        F  0.64952347  0.20631968  0.68973967    -0.20200
F337        F  0.66245083  0.14185025  0.73786783    -0.19900
F338        F  0.83426284  0.12380175  0.53478927    -0.20000
F339        F  0.86677715  0.07450179  0.59122774    -0.20300
F340        F  0.88200355  0.15440894  0.59316436    -0.23000
C341        C  0.25409024  0.90633771  0.34803516    -0.05800
C342        C  0.24964191  0.89381253  0.39586064     0.00100
C343        C  0.24391275  0.84455004  0.40865314    -0.08400
C344        C  0.24334182  0.80884441  0.37267648    -0.05800
C345        C  0.24875196  0.82102498  0.32465504     0.00100
C346        C  0.25349886  0.87076106  0.31184113    -0.08300
C347        C  0.25697595  0.88673950  0.26046875     0.62000
H348        H  0.25821023  0.94445748  0.33930789     0.12700
H349        H  0.23953183  0.77084398  0.38191315     0.12700
C350        C  0.23983678  0.82996488  0.46021535     0.62300
F351        F  0.25105362  0.93655781  0.25609121    -0.22900
F352        F  0.21945759  0.86453872  0.23370086    -0.20200
F353        F  0.30388573  0.87449266  0.24240889    -0.19900
F354        F  0.19813272  0.85200479  0.48067985    -0.20000
F355        F  0.28298935  0.84458638  0.48404397    -0.20300
F356        F  0.23490432  0.78012356  0.46527227    -0.23000
C357        C  0.30018423  0.13166743  0.60210787    -0.05800
C358        C  0.25252920  0.11432073  0.58719095     0.00100
C359        C  0.20828741  0.13545266  0.60792778    -0.08400
C360        C  0.21415668  0.17023939  0.64459600    -0.05800
C361        C  0.26184736  0.18567294  0.66060012     0.00100
C362        C  0.30569810  0.16745784  0.63773113    -0.08300
C363        C  0.35824867  0.18636990  0.64963205     0.62000
H364        H  0.33386360  0.11660873  0.58591045     0.12700
H365        H  0.18107910  0.18538318  0.66184650     0.12700
C366        C  0.15485258  0.12235875  0.59210133     0.62300
F367        F  0.39348517  0.17216214  0.61597694    -0.22900
F368        F  0.37360254  0.16849409  0.69302681    -0.20200
F369        F  0.35800552  0.23670398  0.65119870    -0.19900
F370        F  0.14495704  0.07405753  0.60175524    -0.20000
F371        F  0.14946612  0.13071380  0.54405396    -0.20300
F372        F  0.11855603  0.15001931  0.61522852    -0.23000
C373        C  0.28851135  0.87038177  0.59821868    -0.05800
C374        C  0.25643725  0.91100950  0.60110381     0.00100
C375        C  0.22909465  0.91987827  0.64356412    -0.08400
C376        C  0.23068318  0.88481628  0.67970941    -0.05800
C377        C  0.26038923  0.84281001  0.67540532     0.00100
C378        C  0.29129636  0.83616654  0.63500149    -0.08300
C379        C  0.32745517  0.79350214  0.63121807     0.62000
H380        H  0.31142556  0.86559918  0.56679944     0.12700
H381        H  0.20853846  0.88983495  0.71166994     0.12700
C382        C  0.20067065  0.96719127  0.65176524     0.62300
F383        F  0.35363846  0.79330622  0.58872963    -0.22900
F384        F  0.30099986  0.75041273  0.63411050    -0.20200
F385        F  0.36221568  0.79587589  0.66788302    -0.19900
F386        F  0.18401115  0.97164321  0.69813112    -0.20000
F387        F  0.15898926  0.96931142  0.62223038    -0.20300
F388        F  0.23225744  0.00615236  0.64271310    -0.23000
C389        C  0.58596279  0.72133421  0.14653215    -0.05800
C390        C  0.59580822  0.75555080  0.11095318     0.00100
C391        C  0.63960649  0.78527405  0.11411169    -0.08400
C392        C  0.67197995  0.77970183  0.15329118    -0.05800
C393        C  0.66173280  0.74577012  0.18870919     0.00100
C394        C  0.61824662  0.71617133  0.18579346    -0.08300
C395        C  0.60594004  0.67999685  0.22447427     0.62000
H396        H  0.55228176  0.69907178  0.14362922     0.12700
H397        H  0.70572764  0.80181828  0.15667136     0.12700
C398        C  0.65299999  0.82176198  0.07597346     0.62300
F399        F  0.56084408  0.65591269  0.21575386    -0.22900
F400        F  0.60179237  0.70415482  0.26753528    -0.20200
F401        F  0.64402973  0.64566692  0.22748119    -0.19900
F402        F  0.61898784  0.85996829  0.07702652    -0.20000
F403        F  0.65164779  0.79943061  0.03183967    -0.20300
F404        F  0.70102971  0.84078932  0.08247737    -0.23000
C405        C  0.71415787  0.85644472  0.32643309    -0.05800
C406        C  0.73083651  0.80941635  0.33833481     0.00100
C407        C  0.74499991  0.79976879  0.38607463    -0.08400
C408        C  0.74458278  0.83838113  0.41924872    -0.05800
C409        C  0.72897356  0.88525418  0.40673341     0.00100
C410        C  0.71267654  0.89454961  0.35995426    -0.08300
C411        C  0.69519425  0.94487796  0.34532560     0.62000
H412        H  0.70298261  0.86350566  0.29017110     0.12700
H413        H  0.75671521  0.83235058  0.45546503     0.12700
C414        C  0.75940372  0.74917035  0.40272207     0.62300
F415        F  0.68237770  0.94657652  0.29772235    -0.22900
F416        F  0.73346816  0.97819501  0.35343384    -0.20200
F417        F  0.65309494  0.95817911  0.37140317    -0.19900
F418        F  0.80652247  0.73674834  0.38524008    -0.20000
F419        F  0.72387216  0.71560689  0.38728946    -0.20300
F420        F  0.76154814  0.74667002  0.45172783    -0.23000
C421        C  0.13753650  0.59482993  0.29335552    -0.05800
C422        C  0.09622166  0.59927604  0.26229296     0.00100
C423        C  0.09197370  0.64099205  0.23321362    -0.08400
C424        C  0.13122335  0.67540352  0.23423598    -0.05800
C425        C  0.17328884  0.66982477  0.26388888     0.00100
C426        C  0.17658030  0.62949178  0.29445734    -0.08300
C427        C  0.22164744  0.62273090  0.32711727     0.62000
H428        H  0.13958572  0.56328511  0.31603750     0.12700
H429        H  0.12950137  0.70711394  0.21169464     0.12700
C430        C  0.04558267  0.65033728  0.20266695     0.62300
F431        F  0.21780480  0.58053275  0.35339079    -0.22900
F432        F  0.22497418  0.66165473  0.35834076    -0.20200
F433        F  0.26548701  0.62008676  0.30055163    -0.19900
F434        F  0.00223735  0.64539217  0.22963051    -0.20000
F435        F  0.04417597  0.61777354  0.16507828    -0.20300
F436        F  0.04572004  0.69686337  0.18419256    -0.23000
C437        C  0.86544316  0.37282535  0.29937695    -0.05800
C438        C  0.88857368  0.38451884  0.25590722     0.00100
C439        C  0.87220948  0.35985737  0.21385860    -0.08400
C440        C  0.83538041  0.32327055  0.21779306    -0.05800
C441        C  0.81350958  0.31102234  0.26132250     0.00100
C442        C  0.82768549  0.33700175  0.30283835    -0.08300
C443        C  0.80227422  0.32834187  0.35037187     0.62000
H444        H  0.87699606  0.39221583  0.33115523     0.12700
H445        H  0.82342667  0.30329638  0.18646348     0.12700
C446        C  0.89270607  0.37124292  0.16474599     0.62300
F447        F  0.81464032  0.36404516  0.38334167    -0.22900
F448        F  0.81743695  0.28403507  0.36838647    -0.20200
F449        F  0.75024193  0.32865578  0.34493718    -0.19900
F450        F  0.94454282  0.36445340  0.16389140    -0.20000
F451        F  0.88104373  0.41874280  0.15306657    -0.20300
F452        F  0.87195588  0.34150099  0.12991366    -0.23000
C453        C  0.87319383  0.61686834  0.22259240    -0.05800
C454        C  0.88257647  0.59123264  0.26479382     0.00100
C455        C  0.85294122  0.60238134  0.30564509    -0.08400
C456        C  0.81688988  0.63998195  0.30282038    -0.05800
C457        C  0.80787708  0.66526897  0.26067581     0.00100
C458        C  0.83593856  0.65315555  0.21944771    -0.08300
C459        C  0.82740511  0.67845954  0.17228134     0.62000
H460        H  0.89532511  0.60815005  0.19142573     0.12700
H461        H  0.79446784  0.64951426  0.33362108     0.12700
C462        C  0.85766656  0.57451623  0.35181832     0.62300
F463        F  0.86391845  0.66605519  0.13915987    -0.22900
F464        F  0.82893658  0.72840217  0.17854675    -0.20200
F465        F  0.78092354  0.66506831  0.15378538    -0.19900
F466        F  0.90440526  0.58327044  0.37225473    -0.20000
F467        F  0.85178969  0.52521490  0.34312283    -0.20300
F468        F  0.82112868  0.58826615  0.38442022    -0.23000
C469        C  0.40772802  0.28014367  0.13134953    -0.05800
C470        C  0.40140560  0.24547373  0.09481014     0.00100
C471        C  0.35928072  0.21343954  0.09606364    -0.08400
C472        C  0.32626253  0.21599116  0.13505830    -0.05800
C473        C  0.33328393  0.24997926  0.17171517     0.00100
C474        C  0.37413724  0.28303091  0.16993594    -0.08300
C475        C  0.38276983  0.32017221  0.20926713     0.62000
H476        H  0.43987310  0.30449530  0.12989404     0.12700
H477        H  0.29423136  0.19152831  0.13716117     0.12700
C478        C  0.34796515  0.17775705  0.05598224     0.62300
F479        F  0.42548180  0.34807541  0.20133458    -0.22900
F480        F  0.38887529  0.29649416  0.25200424    -0.20200
F481        F  0.34171462  0.35119069  0.21240725    -0.19900
F482        F  0.38307858  0.14048724  0.05614200    -0.20000
F483        F  0.34952360  0.20145650  0.01287804    -0.20300
F484        F  0.30042414  0.15720643  0.06045236    -0.23000
C485        C  0.22939056  0.18114224  0.35387253    -0.05800
C486        C  0.25628371  0.17149312  0.31169712     0.00100
C487        C  0.27937396  0.12486203  0.30579958    -0.08400
C488        C  0.27562620  0.09086342  0.34293040    -0.05800
C489        C  0.24877640  0.10103867  0.38468232     0.00100
C490        C  0.22501224  0.14679100  0.39031335    -0.08300
C491        C  0.19653332  0.15998937  0.43534719     0.62000
H492        H  0.21191331  0.21644227  0.35857767     0.12700
H493        H  0.29374394  0.05563531  0.33971566     0.12700
C494        C  0.30712830  0.10992307  0.26076613     0.62300
F495        F  0.18010740  0.20782056  0.43536218    -0.22900
F496        F  0.22777048  0.15394126  0.47425701    -0.20200
F497        F  0.15452059  0.13044213  0.43965976    -0.19900
F498        F  0.35128541  0.13648955  0.25658387    -0.20000
F499        F  0.27654726  0.11758993  0.22164585    -0.20300
F500        F  0.32020751  0.06112652  0.26083870    -0.23000
C501        C  0.19327938  0.36566482  0.26763000    -0.05800
C502        C  0.18282998  0.32094158  0.24555415     0.00100
C503        C  0.13522661  0.31285228  0.22400796    -0.08400
C504        C  0.09802980  0.34924316  0.22770498    -0.05800
C505        C  0.10767911  0.39331084  0.25143312     0.00100
C506        C  0.15649768  0.40262278  0.27029314    -0.08300
C507        C  0.17033773  0.45212804  0.29068327     0.62000
H508        H  0.23061746  0.37142154  0.28255162     0.12700
H509        H  0.06088721  0.34345967  0.21235900     0.12700
C510        C  0.12442619  0.26627992  0.19658396     0.62300
F511        F  0.22092601  0.45471922  0.30327766    -0.22900
F512        F  0.16117586  0.48743277  0.25705315    -0.20200
F513        F  0.14181829  0.46184633  0.33067376    -0.19900
F514        F  0.12744234  0.22689270  0.22664515    -0.20000
F515        F  0.15956154  0.26071192  0.16063922    -0.20300
F516        F  0.07672168  0.26664381  0.17624396    -0.23000
loop_ 
_geom_bond_atom_site_label_1 
_geom_bond_atom_site_label_2 
_geom_bond_distance 
_geom_bond_site_symmetry_2 
_ccdc_geom_bond_type 
C1            N2   1.360       .  A
C1            N6   1.362       .  A
C1          C486   1.501       .  S
N2            C3   1.360       .  A
C3            N4   1.356       .  A
C3          C473   1.472       .  S
N4            C5   1.355       .  A
C5            N6   1.357       .  A
C5          C502   1.471       .  S
O7          Ni15   1.916   1_455  S
O7           C17   1.280       .  A
O8          Ni15   1.911       .  S
O8           C18   1.282       .  A
O9          Ni15   1.910   1_455  S
O9           C19   1.279       .  A
O10         Ni15   1.909       .  S
O10          C20   1.277       .  A
O11         Ni16   1.919       .  S
O11          C20   1.283       .  A
O12         Ni16   1.915   1_455  S
O12          C19   1.281       .  A
O13         Ni16   1.920       .  S
O13          C18   1.280       .  A
O14         Ni16   1.921   1_455  S
O14          C17   1.281       .  A
Ni15        Ni16   2.382       .  S
C17         C505   1.475       .  S
C18         C454   1.496       .  S
C19         C422   1.476       .  S
C20         C438   1.496       .  S
C21          N22   1.361       .  A
C21          N26   1.354       .  A
C21         C457   1.481       .  S
N22          C23   1.360       .  A
C23          N24   1.359       .  A
C23         C406   1.490       .  S
N24          C25   1.355       .  A
C25          N26   1.353       .  A
C25         C393   1.465       .  S
O27         Ni35   1.923   1_565  S
O27          C37   1.282       .  A
O28         Ni35   1.925       .  S
O28          C38   1.282       .  A
O29         Ni35   1.917   1_565  S
O29          C39   1.280       .  A
O30         Ni35   1.914       .  S
O30          C40   1.278       .  A
O31         Ni36   1.925       .  S
O31          C40   1.285       .  A
O32         Ni36   1.922   1_565  S
O32          C39   1.281       .  A
O33         Ni36   1.918       .  S
O33          C38   1.280       .  A
O34         Ni36   1.919   1_565  S
O34          C37   1.281       .  A
Ni35        Ni36   2.385       .  S
C37         C374   1.483       .  S
C38         C489   1.482       .  S
C39         C342   1.473       .  S
C40         C358   1.503       .  S
O41         Ni49   1.915       .  S
O41          C51   1.280       .  A
O42         Ni49   1.914   1_545  S
O42          C52   1.278       .  A
O43         Ni49   1.912       .  S
O43          C53   1.279       .  A
O44         Ni49   1.917   1_545  S
O44          C54   1.282       .  A
O45         Ni50   1.913   1_545  S
O45          C54   1.279       .  A
O46         Ni50   1.917       .  S
O46          C53   1.281       .  A
O47         Ni50   1.921   1_545  S
O47          C52   1.284       .  A
O48         Ni50   1.921       .  S
O48          C51   1.281       .  A
Ni49        Ni50   2.385       .  S
C51         C409   1.473       .  S
C52         C326   1.497       .  S
C53         C310   1.477       .  S
C54         C294   1.484       .  S
C55          N56   1.361       .  A
C55          N60   1.355       .  A
C55         C265   1.476       .  S
N56          C57   1.360       .  A
C57          N58   1.360       .  A
C57         C377   1.476       .  S
N58          C59   1.358       .  A
C59          N60   1.355       .  A
C59         C278   1.472       .  S
O61         Ni69   1.914       .  S
O61          C71   1.279       .  A
O62         Ni69   1.913   1_655  S
O62          C72   1.279       .  A
O63         Ni69   1.920       .  S
O63          C73   1.282       .  A
O64         Ni69   1.922   1_655  S
O64          C74   1.282       .  A
O65         Ni70   1.914   1_655  S
O65          C74   1.280       .  A
O66         Ni70   1.917       .  S
O66          C73   1.280       .  A
O67         Ni70   1.917   1_655  S
O67          C72   1.283       .  A
O68         Ni70   1.924       .  S
O68          C71   1.283       .  A
Ni69        Ni70   2.385       .  S
C71         C214   1.485       .  S
C72         C230   1.489       .  S
C73         C281   1.477       .  S
C74         C249   1.483       .  S
C75          N76   1.355       .  A
C75          N80   1.352       .  A
C75         C201   1.475       .  S
N76          C77   1.362       .  A
C77          N78   1.363       .  A
C77         C246   1.507       .  S
N78          C79   1.365       .  A
C79          N80   1.352       .  A
C79         C329   1.496       .  S
O81         Ni89   1.913       .  S
O81          C91   1.279       .  A
O82         Ni89   1.914   1_556  S
O82          C92   1.279       .  A
O83         Ni89   1.920       .  S
O83          C93   1.281       .  A
O84         Ni89   1.920   1_556  S
O84          C94   1.280       .  A
O85         Ni90   1.908   1_556  S
O85          C94   1.282       .  A
O86         Ni90   1.909       .  S
O86          C93   1.281       .  A
O87         Ni90   1.915   1_556  S
O87          C92   1.280       .  A
O88         Ni90   1.915       .  S
O88          C91   1.281       .  A
Ni89        Ni90   2.384       .  S
C91         C390   1.477       .  S
C92         C262   1.468       .  S
C93         C182   1.493       .  S
C94         C166   1.498       .  S
O95        Ni103   1.916       .  S
O95         C105   1.279       .  A
O96        Ni103   1.915   1_554  S
O96         C106   1.280       .  A
O97        Ni103   1.917       .  S
O97         C107   1.282       .  A
O98        Ni103   1.916   1_554  S
O98         C108   1.280       .  A
O99        Ni104   1.917   1_554  S
O99         C108   1.280       .  A
O100       Ni104   1.920       .  S
O100        C107   1.281       .  A
O101       Ni104   1.917   1_554  S
O101        C106   1.281       .  A
O102       Ni104   1.911       .  S
O102        C105   1.282       .  A
Ni103      Ni104   2.384       .  S
C105        C198   1.489       .  S
C106        C470   1.484       .  S
C107        C134   1.492       .  S
C108        C150   1.473       .  S
C109        N110   1.358       .  A
C109        N114   1.357       .  A
C109        C313   1.468       .  S
N110        C111   1.358       .  A
C111        N112   1.355       .  A
C111        C233   1.476       .  S
N112        C113   1.356       .  A
C113        N114   1.358       .  A
C113        C169   1.479       .  S
C115        N116   1.358       .  A
C115        N120   1.358       .  A
C115        C153   1.491       .  S
N116        C117   1.358       .  A
C117        N118   1.355       .  A
C117        C297   1.468       .  S
N118        C119   1.355       .  A
C119        N120   1.357       .  A
C119        C441   1.481       .  S
C121        N122   1.359       .  A
C121        N126   1.354       .  A
C121        C217   1.472       .  S
N122        C123   1.362       .  A
C123        N124   1.361       .  A
C123        C361   1.490       .  S
N124        C125   1.359       .  A
C125        N126   1.355       .  A
C125        C137   1.475       .  S
C127        N128   1.357       .  A
C127        N132   1.358       .  A
C127        C185   1.479       .  S
N128        C129   1.357       .  A
C129        N130   1.357       .  A
C129        C425   1.468       .  S
N130        C131   1.359       .  A
C131        N132   1.357       .  A
C131        C345   1.483       .  S
C133        C134   1.409       .  A
C133        C138   1.408       .  A
C133        H140   1.083       .  S
C134        C135   1.425       .  A
C135        C136   1.408       .  A
C135        C142   1.521       .  S
C136        C137   1.400       .  A
C136        H141   1.083       .  S
C137        C138   1.412       .  A
C138        C139   1.518       .  S
C139        F143   1.384       .  S
C139        F144   1.382       .  S
C139        F145   1.384       .  S
C142        F146   1.383       .  S
C142        F147   1.385       .  S
C142        F148   1.383       .  S
C149        C150   1.400       .  A
C149        C154   1.408       .  A
C149        H156   1.083       .  S
C150        C151   1.412       .  A
C151        C152   1.405       .  A
C151        C158   1.519       .  S
C152        C153   1.410       .  A
C152        H157   1.083       .  S
C153        C154   1.424       .  A
C154        C155   1.520       .  S
C155        F159   1.385       .  S
C155        F160   1.383       .  S
C155        F161   1.383       .  S
C158        F162   1.382       .  S
C158        F163   1.385       .  S
C158        F164   1.382       .  S
C165        C166   1.410       .  A
C165        C170   1.402       .  A
C165        H172   1.081       .  S
C166        C167   1.427       .  A
C167        C168   1.410       .  A
C167        C174   1.522       .  S
C168        C169   1.402       .  A
C168        H173   1.083       .  S
C169        C170   1.415       .  A
C170        C171   1.522       .  S
C171        F175   1.382       .  S
C171        F176   1.384       .  S
C171        F177   1.385       .  S
C174        F178   1.383       .  S
C174        F179   1.383       .  S
C174        F180   1.385       .  S
C181        C182   1.410       .  A
C181        C186   1.406       .  A
C181        H188   1.082       .  S
C182        C183   1.423       .  A
C183        C184   1.407       .  A
C183        C190   1.521       .  S
C184        C185   1.402       .  A
C184        H189   1.082       .  S
C185        C186   1.415       .  A
C186        C187   1.520       .  S
C187        F191   1.385       .  S
C187        F192   1.382       .  S
C187        F193   1.383       .  S
C190        F194   1.384       .  S
C190        F195   1.383       .  S
C190        F196   1.385       .  S
C197        C198   1.408       .  A
C197        C202   1.403       .  A
C197        H204   1.082       .  S
C198        C199   1.424       .  A
C199        C200   1.408       .  A
C199        C206   1.521       .  S
C200        C201   1.401       .  A
C200        H205   1.083       .  S
C201        C202   1.414       .  A
C202        C203   1.520       .  S
C203        F207   1.385       .  S
C203        F208   1.384       .  S
C203        F209   1.380       .  S
C206        F210   1.383       .  S
C206        F211   1.385       .  S
C206        F212   1.383       .  S
C213        C214   1.405       .  A
C213        C218   1.406       .  A
C213        H220   1.083       .  S
C214        C215   1.422       .  A
C215        C216   1.407       .  A
C215        C222   1.517       .  S
C216        C217   1.399       .  A
C216        H221   1.083       .  S
C217        C218   1.414       .  A
C218        C219   1.519       .  S
C219        F223   1.384       .  S
C219        F224   1.382       .  S
C219        F225   1.383       .  S
C222        F226   1.381       .  S
C222        F227   1.382       .  S
C222        F228   1.385       .  S
C229        C230   1.407       .  A
C229        C234   1.405       .  A
C229        H236   1.082       .  S
C230        C231   1.424       .  A
C231        C232   1.407       .  A
C231        C238   1.521       .  S
C232        C233   1.400       .  A
C232        H237   1.083       .  S
C233        C234   1.415       .  A
C234        C235   1.520       .  S
C235        F239   1.385       .  S
C235        F240   1.382       .  S
C235        F241   1.383       .  S
C238        F242   1.385       .  S
C238        F243   1.384       .  S
C238        F244   1.383       .  S
C245        C246   1.411       .  A
C245        C250   1.405       .  A
C245        H252   1.078       .  S
C246        C247   1.429       .  A
C247        C248   1.413       .  A
C247        C254   1.520       .  S
C248        C249   1.402       .  A
C248        H253   1.083       .  S
C249        C250   1.414       .  A
C250        C251   1.522       .  S
C251        F255   1.385       .  S
C251        F256   1.383       .  S
C251        F257   1.383       .  S
C254        F258   1.383       .  S
C254        F259   1.383       .  S
C254        F260   1.385       .  S
C261        C262   1.399       .  A
C261        C266   1.407       .  A
C261        H268   1.084       .  S
C262        C263   1.413       .  A
C263        C264   1.405       .  A
C263        C270   1.518       .  S
C264        C265   1.403       .  A
C264        H269   1.083       .  S
C265        C266   1.420       .  A
C266        C267   1.519       .  S
C267        F271   1.385       .  S
C267        F272   1.382       .  S
C267        F273   1.383       .  S
C270        F274   1.383       .  S
C270        F275   1.382       .  S
C270        F276   1.384       .  S
C277        C278   1.401       .  A
C277        C282   1.409       .  A
C277        H284   1.083       .  S
C278        C279   1.413       .  A
C279        C280   1.403       .  A
C279        C286   1.515       .  S
C280        C281   1.400       .  A
C280        H285   1.079       .  S
C281        C282   1.419       .  A
C282        C283   1.518       .  S
C283        F287   1.382       .  S
C283        F288   1.383       .  S
C283        F289   1.385       .  S
C286        F290   1.383       .  S
C286        F291   1.379       .  S
C286        F292   1.384       .  S
C293        C294   1.406       .  A
C293        C298   1.405       .  A
C293        H300   1.083       .  S
C294        C295   1.423       .  A
C295        C296   1.407       .  A
C295        C302   1.520       .  S
C296        C297   1.398       .  A
C296        H301   1.084       .  S
C297        C298   1.411       .  A
C298        C299   1.518       .  S
C299        F303   1.384       .  S
C299        F304   1.383       .  S
C299        F305   1.383       .  S
C302        F306   1.384       .  S
C302        F307   1.382       .  S
C302        F308   1.385       .  S
C309        C310   1.405       .  A
C309        C314   1.407       .  A
C309        H316   1.083       .  S
C310        C311   1.419       .  A
C311        C312   1.405       .  A
C311        C318   1.520       .  S
C312        C313   1.399       .  A
C312        H317   1.084       .  S
C313        C314   1.412       .  A
C314        C315   1.517       .  S
C315        F319   1.385       .  S
C315        F320   1.383       .  S
C315        F321   1.383       .  S
C318        F322   1.384       .  S
C318        F323   1.382       .  S
C318        F324   1.385       .  S
C325        C326   1.406       .  A
C325        C330   1.408       .  A
C325        H332   1.082       .  S
C326        C327   1.425       .  A
C327        C328   1.408       .  A
C327        C334   1.521       .  S
C328        C329   1.404       .  A
C328        H333   1.080       .  S
C329        C330   1.426       .  A
C330        C331   1.524       .  S
C331        F335   1.385       .  S
C331        F336   1.384       .  S
C331        F337   1.383       .  S
C334        F338   1.384       .  S
C334        F339   1.383       .  S
C334        F340   1.385       .  S
C341        C342   1.399       .  A
C341        C346   1.408       .  A
C341        H348   1.084       .  S
C342        C343   1.412       .  A
C343        C344   1.406       .  A
C343        C350   1.515       .  S
C344        C345   1.405       .  A
C344        H349   1.083       .  S
C345        C346   1.422       .  A
C346        C347   1.520       .  S
C347        F351   1.385       .  S
C347        F352   1.384       .  S
C347        F353   1.382       .  S
C350        F354   1.383       .  S
C350        F355   1.381       .  S
C350        F356   1.385       .  S
C357        C358   1.409       .  A
C357        C362   1.407       .  A
C357        H364   1.082       .  S
C358        C359   1.430       .  A
C359        C360   1.411       .  A
C359        C366   1.523       .  S
C360        C361   1.403       .  A
C360        H365   1.083       .  S
C361        C362   1.417       .  A
C362        C363   1.519       .  S
C363        F367   1.385       .  S
C363        F368   1.382       .  S
C363        F369   1.384       .  S
C366        F370   1.383       .  S
C366        F371   1.383       .  S
C366        F372   1.385       .  S
C373        C374   1.404       .  A
C373        C378   1.407       .  A
C373        H380   1.081       .  S
C374        C375   1.419       .  A
C375        C376   1.409       .  A
C375        C382   1.518       .  S
C376        C377   1.401       .  A
C376        H381   1.083       .  S
C377        C378   1.414       .  A
C378        C379   1.516       .  S
C379        F383   1.385       .  S
C379        F384   1.379       .  S
C379        F385   1.383       .  S
C382        F386   1.385       .  S
C382        F387   1.381       .  S
C382        F388   1.384   1_565  S
C389        C390   1.405       .  A
C389        C394   1.404       .  A
C389        H396   1.083       .  S
C390        C391   1.420       .  A
C391        C392   1.405       .  A
C391        C398   1.519       .  S
C392        C393   1.399       .  A
C392        H397   1.083       .  S
C393        C394   1.410       .  A
C394        C395   1.517       .  S
C395        F399   1.384       .  S
C395        F400   1.383       .  S
C395        F401   1.383       .  S
C398        F402   1.382       .  S
C398        F403   1.383       .  S
C398        F404   1.385       .  S
C405        C406   1.409       .  A
C405        C410   1.406       .  A
C405        H412   1.083       .  S
C406        C407   1.423       .  A
C407        C408   1.409       .  A
C407        C414   1.520       .  S
C408        C409   1.400       .  A
C408        H413   1.084       .  S
C409        C410   1.412       .  A
C410        C411   1.518       .  S
C411        F415   1.385       .  S
C411        F416   1.382       .  S
C411        F417   1.383       .  S
C414        F418   1.382       .  S
C414        F419   1.384       .  S
C414        F420   1.385       .  S
C421        C422   1.404       .  A
C421        C426   1.405       .  A
C421        H428   1.083       .  S
C422        C423   1.419       .  A
C423        C424   1.404       .  A
C423        C430   1.520       .  S
C424        C425   1.399       .  A
C424        H429   1.084       .  S
C425        C426   1.412       .  A
C426        C427   1.517       .  S
C427        F431   1.385       .  S
C427        F432   1.383       .  S
C427        F433   1.383       .  S
C430        F434   1.384       .  S
C430        F435   1.382       .  S
C430        F436   1.385       .  S
C437        C438   1.410       .  A
C437        C442   1.406       .  A
C437        H444   1.082       .  S
C438        C439   1.427       .  A
C439        C440   1.405       .  A
C439        C446   1.523       .  S
C440        C441   1.401       .  A
C440        H445   1.083       .  S
C441        C442   1.416       .  A
C442        C443   1.521       .  S
C443        F447   1.385       .  S
C443        F448   1.382       .  S
C443        F449   1.384       .  S
C446        F450   1.383       .  S
C446        F451   1.384       .  S
C446        F452   1.385       .  S
C453        C454   1.409       .  A
C453        C458   1.405       .  A
C453        H460   1.082       .  S
C454        C455   1.425       .  A
C455        C456   1.408       .  A
C455        C462   1.521       .  S
C456        C457   1.401       .  A
C456        H461   1.083       .  S
C457        C458   1.417       .  A
C458        C459   1.522       .  S
C459        F463   1.385       .  S
C459        F464   1.383       .  S
C459        F465   1.383       .  S
C462        F466   1.383       .  S
C462        F467   1.384       .  S
C462        F468   1.385       .  S
C469        C470   1.407       .  A
C469        C474   1.407       .  A
C469        H476   1.083       .  S
C470        C471   1.421       .  A
C471        C472   1.406       .  A
C471        C478   1.519       .  S
C472        C473   1.400       .  A
C472        H477   1.083       .  S
C473        C474   1.413       .  A
C474        C475   1.518       .  S
C475        F479   1.385       .  S
C475        F480   1.383       .  S
C475        F481   1.383       .  S
C478        F482   1.382       .  S
C478        F483   1.384       .  S
C478        F484   1.385       .  S
C485        C486   1.410       .  A
C485        C490   1.406       .  A
C485        H492   1.082       .  S
C486        C487   1.428       .  A
C487        C488   1.412       .  A
C487        C494   1.521       .  S
C488        C489   1.402       .  A
C488        H493   1.083       .  S
C489        C490   1.414       .  A
C490        C491   1.519       .  S
C491        F495   1.384       .  S
C491        F496   1.383       .  S
C491        F497   1.382       .  S
C494        F498   1.383       .  S
C494        F499   1.384       .  S
C494        F500   1.385       .  S
C501        C502   1.401       .  A
C501        C506   1.408       .  A
C501        H508   1.083       .  S
C502        C503   1.413       .  A
C503        C504   1.406       .  A
C503        C510   1.517       .  S
C504        C505   1.402       .  A
C504        H509   1.083       .  S
C505        C506   1.417       .  A
C506        C507   1.517       .  S
C507        F511   1.385       .  S
C507        F512   1.383       .  S
C507        F513   1.382       .  S
C510        F514   1.382       .  S
C510        F515   1.384       .  S
C510        F516   1.384       .  S
