geometry optimzed in LAMMPS
_audit_creation_date              2020-11-30 
_audit_creation_method            'lammps2cif' 
_symmetry_space_group_name_H-M    'P1' 
_symmetry_Int_Tables_number       1 
_symmetry_cell_setting            triclinic 
loop_ 
_symmetry_equiv_pos_as_xyz 
  x,y,z 
_cell_length_a                    72.02691604 
_cell_length_b                    72.17793730916216 
_cell_length_c                    65.09508098652734 
_cell_angle_alpha                 89.29813209296839 
_cell_angle_beta                  90.531864857571 
_cell_angle_gamma                 125.47476038291298 
loop_ 
_atom_site_label 
_atom_site_type_symbol 
_atom_site_fract_x 
_atom_site_fract_y 
_atom_site_fract_z 
_atom_site_charge 
N1          N  0.51585786  0.02460757  0.83666755    -0.35800
N2          N  0.49529976  0.03672539  0.80597191    -0.56300
N3          N  0.52429933  0.03783443  0.77431482    -0.35800
N4          N  0.54630505  0.02764794  0.80490281    -0.56300
C5          C  0.50487605  0.03045919  0.84885830     0.27800
C6          C  0.53191451  0.02537117  0.84835661     0.27800
C7          C  0.51548860  0.04753297  0.76419938     0.27800
C8          C  0.54274431  0.04295273  0.76361102     0.27800
C9          C  0.48126241  0.03202963  0.82188256     0.36400
C10         C  0.48516815  0.03820310  0.78911996     0.36400
C11         C  0.55249652  0.02017575  0.82083464     0.36400
C12         C  0.55680097  0.02700099  0.78808186     0.36400
C13         C  0.51365503  0.03434520  0.86862061    -0.21100
C14         C  0.53060786  0.03102390  0.86833554    -0.21100
C15         C  0.52828398  0.05872242  0.74676054    -0.21100
C16         C  0.54552494  0.05585100  0.74639786    -0.21100
C17         C  0.46206983  0.03039466  0.81510582    -0.22100
C18         C  0.46452358  0.03426902  0.79429646    -0.22100
C19         C  0.56698136  0.01472333  0.81410489    -0.22100
C20         C  0.56964973  0.01898370  0.79333004    -0.22100
C21         C  0.48699670  0.03216712  0.84268039    -0.17500
C22         C  0.54760134  0.02089133  0.84166087    -0.17500
C23         C  0.55660236  0.03554218  0.76849032    -0.17500
C24         C  0.49538371  0.04534396  0.76957650    -0.17500
H25         H  0.50858161  0.03930556  0.88187054     0.15400
H26         H  0.54103223  0.03292039  0.88134686     0.15400
H27         H  0.52541668  0.06789881  0.73540418     0.15400
H28         H  0.55856498  0.06244125  0.73472448     0.15400
H29         H  0.44812348  0.02741665  0.82430988     0.13700
H30         H  0.45281049  0.03484427  0.78424259     0.13700
H31         H  0.57530447  0.00893362  0.82331866     0.13700
H32         H  0.58035329  0.01704991  0.78335846     0.13700
H33         H  0.51158893  0.01877409  0.82166438     0.27000
H34         H  0.51661894  0.02629086  0.78643262     0.27000
N35         N  0.58956368  0.14080841  0.11995951    -0.35800
N36         N  0.55972695  0.13709978  0.15204423    -0.56300
N37         N  0.58438840  0.13013865  0.18305336    -0.35800
N38         N  0.61367249  0.13306561  0.15104894    -0.56300
C39         C  0.57227756  0.13788224  0.10849658     0.27800
C40         C  0.60095032  0.13527899  0.10802898     0.27800
C41         C  0.56543391  0.12354922  0.19369920     0.27800
C42         C  0.59441351  0.12160491  0.19310528     0.27800
C43         C  0.55169932  0.14270248  0.13610972     0.36400
C44         C  0.54891780  0.13692078  0.16897455     0.36400
C45         C  0.62703391  0.13736762  0.13471432     0.36400
C46         C  0.62451552  0.13205251  0.16755946     0.36400
C47         C  0.57324535  0.13127156  0.08884309    -0.21100
C48         C  0.59124960  0.12950204  0.08858513    -0.21100
C49         C  0.56379839  0.11132523  0.21104416    -0.21100
C50         C  0.58209415  0.11007701  0.21065718    -0.21100
C51         C  0.53591767  0.14635979  0.14301408    -0.22100
C52         C  0.53417457  0.14271032  0.16383387    -0.22100
C53         C  0.64666707  0.13951539  0.14091762    -0.22100
C54         C  0.64505730  0.13612258  0.16177692    -0.22100
C55         C  0.55571110  0.14111168  0.11523265    -0.17500
C56         C  0.61996400  0.13546571  0.11413796    -0.17500
C57         C  0.61464180  0.12432755  0.18713383    -0.17500
C58         C  0.54971128  0.12850784  0.18838375    -0.17500
H59         H  0.56193894  0.12772034  0.07606617     0.15400
H60         H  0.59646194  0.12434772  0.07558197     0.15400
H61         H  0.55067747  0.10388515  0.22270077     0.15400
H62         H  0.58578947  0.10149741  0.22195509     0.15400
H63         H  0.52587846  0.15018820  0.13390130     0.13700
H64         H  0.52259907  0.14322739  0.17388810     0.13700
H65         H  0.66016414  0.14210463  0.13127157     0.13700
H66         H  0.65708890  0.13563593  0.17143123     0.13700
H67         H  0.59428006  0.14772246  0.13459168     0.27000
H68         H  0.59108785  0.14135832  0.17063570     0.27000
O69         O  0.39971722  0.06424962  0.95739669    -0.57000
C70         C  0.36349648  0.06773948  0.00378021     0.75600
O71         O  0.44086994  0.12594737  0.99586572    -0.58100
C72         C  0.42056780  0.07530317  0.95249921     0.75600
C73         C  0.39501781  0.11974009  0.95308798     0.78000
Cd74       Cd  0.40464095  0.09446171  0.98010355     1.37500
O75         O  0.37170412  0.05862224  0.99458353    -0.57000
O76         O  0.38766744  0.09929331  0.95004900    -0.55800
C77         C  0.43912787  0.11461600  0.01167155     0.78000
O78         O  0.40735261  0.12895091  0.96888981    -0.58200
O79         O  0.37431906  0.08906644  0.00174947    -0.56600
O80         O  0.43361572  0.09453367  0.96079683    -0.56600
O81         O  0.42136591  0.09443589  0.01290029    -0.55800
O82         O  0.70993740  0.07125141  0.94730141    -0.57000
C83         C  0.68198375  0.08348964  0.00979714     0.75600
O84         O  0.66375580  0.02972371  0.95477200    -0.58100
C85         C  0.72686320  0.09041181  0.95325175     0.75600
C86         C  0.69993296  0.03175316  0.00328436     0.78000
Cd87       Cd  0.68938869  0.05911656  0.98014561     1.37500
O88         O  0.68308419  0.06716316  0.01476102    -0.57000
O89         O  0.71445205  0.04806424  0.99182924    -0.55800
C90         C  0.64963756  0.03479076  0.95412412     0.78000
O91         O  0.68023164  0.02749937  0.00340946    -0.58200
O92         O  0.68486310  0.08903322  0.99096574    -0.56600
O93         O  0.72657521  0.09510650  0.97188205    -0.56600
O94         O  0.65279780  0.04941074  0.96688734    -0.55800
N95         N  0.90572647  0.79744704  0.80431876    -0.35800
N96         N  0.93393430  0.79430206  0.83432818    -0.56300
N97         N  0.90378407  0.78942753  0.86610814    -0.35800
N98         N  0.87670559  0.79459735  0.83609817    -0.56300
C99         C  0.92404125  0.80365718  0.79287252     0.27800
C100        C  0.89399133  0.80381768  0.79384264     0.27800
C101        C  0.92129983  0.79283426  0.87749386     0.27800
C102        C  0.89124835  0.79305865  0.87843625     0.27800
C103        C  0.94099862  0.79036736  0.81684768     0.36400
C104        C  0.94048379  0.78674182  0.84990104     0.36400
C105        C  0.86381167  0.79154959  0.81951102     0.36400
C106        C  0.86279846  0.78726525  0.85253753     0.36400
C107        C  0.92416935  0.81443057  0.77501886    -0.21100
C108        C  0.90507438  0.81443236  0.77559299    -0.21100
C109        C  0.91997160  0.79880423  0.89729234    -0.21100
C110        C  0.90098465  0.79900787  0.89788222    -0.21100
C111        C  0.95215934  0.78032036  0.82133377    -0.22100
C112        C  0.95198390  0.77818484  0.84234411    -0.22100
C113        C  0.84166618  0.78255377  0.82540959    -0.22100
C114        C  0.84098984  0.77976090  0.84638862    -0.22100
C115        C  0.93889605  0.79731474  0.79710184    -0.17500
C116        C  0.87223458  0.79775287  0.79928248    -0.17500
C117        C  0.87000142  0.78868645  0.87309320    -0.17500
C118        C  0.93699932  0.78847216  0.87087250    -0.17500
H119        H  0.93630196  0.82086541  0.76254605     0.15400
H120        H  0.89958875  0.82086349  0.76367483     0.15400
H121        H  0.93118900  0.80211200  0.91008380     0.15400
H122        H  0.89466133  0.80244911  0.91126003     0.15400
H123        H  0.95982899  0.77527542  0.81061613     0.13700
H124        H  0.95939272  0.77109875  0.85104694     0.13700
H125        H  0.82753974  0.77848733  0.81564249     0.13700
H126        H  0.82616506  0.77305731  0.85600397     0.13700
H127        H  0.89973030  0.78636809  0.81684631     0.27000
H128        H  0.89879950  0.78189612  0.85172676     0.27000
N129        N  0.83555595  0.68012117  0.51167301    -0.35800
N130        N  0.80729904  0.68013928  0.47963907    -0.56300
N131        N  0.84445540  0.69340755  0.45143841    -0.35800
N132        N  0.87127108  0.69123347  0.48326787    -0.56300
C133        C  0.81548759  0.67085924  0.52143723     0.27800
C134        C  0.84829418  0.67575676  0.52328955     0.27800
C135        C  0.82740405  0.68835878  0.43849908     0.27800
C136        C  0.86033515  0.69372936  0.44022893     0.27800
C137        C  0.79714409  0.68149464  0.49632795     0.36400
C138        C  0.80172840  0.68810071  0.46361737     0.36400
C139        C  0.88257742  0.69531328  0.50118743     0.36400
C140        C  0.88725818  0.70229702  0.46848278     0.36400
C141        C  0.81519720  0.66001531  0.53927658    -0.21100
C142        C  0.83585400  0.66290598  0.54034970    -0.21100
C143        C  0.83223974  0.68504587  0.41888953    -0.21100
C144        C  0.85301742  0.68827242  0.42000739    -0.21100
C145        C  0.78450691  0.68969814  0.49074850    -0.22100
C146        C  0.78727791  0.69371489  0.46993427    -0.22100
C147        C  0.90591073  0.70890640  0.49772856    -0.22100
C148        C  0.90886382  0.71323725  0.47694016    -0.22100
C149        C  0.79951078  0.67562374  0.51648666    -0.17500
C150        C  0.87187234  0.68613866  0.52040280    -0.17500
C151        C  0.88232142  0.70163953  0.44737066    -0.17500
C152        C  0.80962526  0.69030395  0.44339035    -0.17500
H153        H  0.80192462  0.65188155  0.55079416     0.15400
H154        H  0.84160934  0.65741029  0.55288299     0.15400
H155        H  0.82223998  0.68156651  0.40509391     0.15400
H156        H  0.86217237  0.68771344  0.40721885     0.15400
H157        H  0.77466555  0.69288473  0.50062657     0.13700
H158        H  0.77996946  0.70051239  0.46062472     0.13700
H159        H  0.91941899  0.71516823  0.50896603     0.13700
H160        H  0.92502440  0.72339704  0.46899319     0.13700
H161        H  0.84167961  0.69218068  0.49993787     0.27000
H162        H  0.84681296  0.69998851  0.46611023     0.27000
O163        O  0.75216709  0.73554415  0.63982104    -0.57000
C164        C  0.68954633  0.72015478  0.67566098     0.75600
O165        O  0.76821673  0.78031854  0.66862643    -0.58100
C166        C  0.73872278  0.72442832  0.62511142     0.75600
C167        C  0.72644618  0.77997802  0.62750870     0.78000
Cd168      Cd  0.73085422  0.74959405  0.65300536     1.37500
O169        O  0.69803014  0.71218416  0.66502741    -0.57000
O170        O  0.74278433  0.77822193  0.62521117    -0.55800
C171        C  0.76437355  0.76971363  0.68547438     0.78000
O172        O  0.71311988  0.76862375  0.64221119    -0.58200
O173        O  0.69978502  0.74149782  0.67486594    -0.56600
O174        O  0.72087355  0.72389108  0.62392662    -0.56600
O175        O  0.74545023  0.75058626  0.68693995    -0.55800
O176        O  0.02814997  0.77941801  0.67416124    -0.57000
C177        C  0.06495806  0.77626691  0.62977878     0.75600
O178        O  0.02641368  0.71469003  0.66617218    -0.58100
C179        C  0.01533518  0.76715295  0.68888170     0.75600
C180        C  0.98943699  0.73024307  0.63069413     0.78000
Cd181      Cd  0.02819161  0.74908696  0.65778435     1.37500
O182        O  0.06479776  0.78432323  0.64689492    -0.57000
O183        O  0.99376116  0.71731466  0.63940095    -0.55800
C184        C  0.04303481  0.72445507  0.67864928     0.78000
O185        O  0.00221959  0.75098060  0.63553633    -0.58200
O186        O  0.04858324  0.75591360  0.62627841    -0.56600
O187        O  0.00920739  0.74678899  0.68955278    -0.56600
O188        O  0.05237806  0.74542273  0.68153178    -0.55800
N189        N  0.17849942  0.35462055  0.16444953    -0.35800
N190        N  0.21004917  0.35848237  0.13399014    -0.56300
N191        N  0.18795179  0.36923047  0.10361002    -0.35800
N192        N  0.15451710  0.36230008  0.13380712    -0.56300
C193        C  0.18808760  0.34595846  0.17503336     0.27800
C194        C  0.16023726  0.34974012  0.17531697     0.27800
C195        C  0.20196352  0.36738027  0.09152637     0.27800
C196        C  0.17225919  0.36827910  0.09122390     0.27800
C197        C  0.22029946  0.35820019  0.15137052     0.36400
C198        C  0.22593404  0.36705925  0.11899696     0.36400
C199        C  0.14561008  0.36490033  0.15080562     0.36400
C200        C  0.14941462  0.37091748  0.11800621     0.36400
C201        C  0.17548421  0.33502982  0.19263699    -0.21100
C202        C  0.15794177  0.33755038  0.19286941    -0.21100
C203        C  0.19498754  0.36505535  0.07121621    -0.21100
C204        C  0.17628364  0.36573889  0.07101965    -0.21100
C205        C  0.24265601  0.36615912  0.14731452    -0.22100
C206        C  0.24623045  0.37178485  0.12679727    -0.22100
C207        C  0.13427698  0.37459611  0.14567867    -0.22100
C208        C  0.13649712  0.37820510  0.12485464    -0.22100
C209        C  0.20963587  0.35063843  0.17079572    -0.17500
C210        C  0.14724311  0.35820938  0.17082642    -0.17500
C211        C  0.15610496  0.37222329  0.09742763    -0.17500
C212        C  0.22200113  0.36979429  0.09819781    -0.17500
H213        H  0.17915524  0.32694712  0.20450920     0.15400
H214        H  0.14531269  0.33166241  0.20483961     0.15400
H215        H  0.20292571  0.36364159  0.05786666     0.15400
H216        H  0.16703678  0.36502338  0.05749610     0.15400
H217        H  0.25517276  0.36795467  0.15803332     0.13700
H218        H  0.26202823  0.37873680  0.11862671     0.13700
H219        H  0.12540775  0.37874842  0.15584057     0.13700
H220        H  0.12973838  0.38575344  0.11585893     0.13700
H221        H  0.18612756  0.36640200  0.15251431     0.27000
H222        H  0.19090471  0.37416294  0.11888262     0.27000
N223        N  0.25895512  0.48558688  0.45714461    -0.35800
N224        N  0.23069776  0.48573259  0.48855411    -0.56300
N225        N  0.24964812  0.47231566  0.51951888    -0.35800
N226        N  0.27766855  0.47177972  0.48842896    -0.56300
C227        C  0.24245536  0.48429067  0.44572982     0.27800
C228        C  0.26777619  0.47694647  0.44565214     0.27800
C229        C  0.23058116  0.46705362  0.52912395     0.27800
C230        C  0.25659775  0.46073942  0.52932887     0.27800
C231        C  0.22589077  0.49452424  0.47271557     0.36400
C232        C  0.22067763  0.48713305  0.50529804     0.36400
C233        C  0.29125241  0.47527050  0.47253382     0.36400
C234        C  0.28698760  0.46907496  0.50524064     0.36400
C235        C  0.24105393  0.47503000  0.42671120    -0.21100
C236        C  0.25712725  0.47052278  0.42663477    -0.21100
C237        C  0.22559011  0.45224437  0.54539125    -0.21100
C238        C  0.24209977  0.44832561  0.54556002    -0.21100
C239        C  0.21333746  0.50224289  0.47954816    -0.22100
C240        C  0.20994249  0.49744998  0.50024065    -0.22100
C241        C  0.30944342  0.47507136  0.47927431    -0.22100
C242        C  0.30677488  0.47120578  0.50008516    -0.22100
C243        C  0.22876197  0.49142335  0.45193186    -0.17500
C244        C  0.28536994  0.47493412  0.45181794    -0.17500
C245        C  0.27626940  0.46189947  0.52453992    -0.17500
C246        C  0.21801265  0.47585372  0.52402253    -0.17500
H247        H  0.22946147  0.47156473  0.41421773     0.15400
H248        H  0.26032463  0.46300076  0.41411432     0.15400
H249        H  0.21155170  0.44503911  0.55608792     0.15400
H250        H  0.24325197  0.43750026  0.55635311     0.15400
H251        H  0.20614997  0.50922815  0.47033493     0.13700
H252        H  0.19972228  0.50009417  0.51017834     0.13700
H253        H  0.32268022  0.47658946  0.47001725     0.13700
H254        H  0.31758847  0.46920713  0.51010369     0.13700
H255        H  0.26499249  0.49344593  0.47135179     0.27000
H256        H  0.25869014  0.48477364  0.50825928     0.27000
O257        O  0.07619376  0.39695301  0.29561145    -0.57000
C258        C  0.03686306  0.39650294  0.33799928     0.75600
O259        O  0.10977368  0.43316955  0.33068067    -0.58100
C260        C  0.08867027  0.40924934  0.28071002     0.75600
C261        C  0.06408616  0.45270910  0.28893986     0.78000
Cd262      Cd  0.07648142  0.42751282  0.31285502     1.37500
O263        O  0.04352671  0.38969409  0.32398074    -0.57000
O264        O  0.05149321  0.43127572  0.29054416    -0.55800
C265        C  0.11460270  0.45014879  0.34102801     0.78000
O266        O  0.08283256  0.46279168  0.29861040    -0.58200
O267        O  0.04881165  0.41779292  0.34059502    -0.56600
O268        O  0.09562064  0.42986888  0.28103362    -0.56600
O269        O  0.10210624  0.45693805  0.33795930    -0.55800
O270        O  0.38332907  0.42776427  0.30560320    -0.57000
C271        C  0.33708522  0.41541938  0.34473305     0.75600
O272        O  0.33370446  0.39662778  0.28622691    -0.58100
C273        C  0.39264775  0.41900844  0.29809708     0.75600
C274        C  0.35103501  0.36226517  0.34530999     0.78000
Cd275      Cd  0.34903648  0.39256111  0.31811409     1.37500
O276        O  0.32225350  0.39615811  0.33714786    -0.57000
O277        O  0.34191654  0.35595621  0.32772707    -0.55800
C278        C  0.31664400  0.37612960  0.28485216     0.78000
O279        O  0.35854107  0.38233706  0.35034899    -0.58200
O280        O  0.35757225  0.42421673  0.33981544    -0.56600
O281        O  0.38188513  0.39768996  0.30034695    -0.56600
O282        O  0.31457611  0.36279713  0.29892070    -0.55800
N283        N  0.90048730  0.22927876  0.79019404    -0.35800
N284        N  0.92903775  0.26161563  0.82158947    -0.56300
N285        N  0.89337866  0.23295747  0.85171340    -0.35800
N286        N  0.86581110  0.19979356  0.82040617    -0.56300
C287        C  0.92067317  0.24188332  0.78026473     0.27800
C288        C  0.88696042  0.20993515  0.77942428     0.27800
C289        C  0.91033222  0.24853345  0.86420363     0.27800
C290        C  0.87754395  0.21525646  0.86363541     0.27800
C291        C  0.94108367  0.27382298  0.80479072     0.36400
C292        C  0.93681707  0.27636835  0.83736461     0.36400
C293        C  0.85386901  0.18982252  0.80303351     0.36400
C294        C  0.85055944  0.19084423  0.83590119     0.36400
C295        C  0.91999545  0.23032286  0.76308291    -0.21100
C296        C  0.89864487  0.21015353  0.76251382    -0.21100
C297        C  0.90501134  0.24076937  0.88439049    -0.21100
C298        C  0.88440466  0.21974806  0.88400432    -0.21100
C299        C  0.95674343  0.29644125  0.80993827    -0.22100
C300        C  0.95419925  0.29801838  0.83061352    -0.22100
C301        C  0.83091668  0.17437959  0.80749168    -0.22100
C302        C  0.82885029  0.17485393  0.82838648    -0.22100
C303        C  0.93876775  0.26443956  0.78516455    -0.17500
C304        C  0.86376436  0.19303693  0.78354662    -0.17500
C305        C  0.85620982  0.19614045  0.85683004    -0.17500
C306        C  0.92958239  0.27022314  0.85802296    -0.17500
H307        H  0.93332669  0.23607359  0.75185305     0.15400
H308        H  0.89229223  0.19729544  0.75078461     0.15400
H309        H  0.91468935  0.24945996  0.89809717     0.15400
H310        H  0.87525454  0.20924697  0.89728989     0.15400
H311        H  0.96890452  0.31031218  0.79992808     0.13700
H312        H  0.96413597  0.31335223  0.83963362     0.13700
H313        H  0.81716373  0.16358045  0.79686829     0.13700
H314        H  0.81317129  0.16457696  0.83702537     0.13700
H315        H  0.89510094  0.23485919  0.80182669     0.27000
H316        H  0.89151849  0.23559494  0.83636268     0.27000
N317        N  0.85822401  0.26490020  0.49898868    -0.35800
N318        N  0.89300323  0.29278181  0.46806839    -0.56300
N319        N  0.86392217  0.26100159  0.43658524    -0.35800
N320        N  0.82990681  0.23233417  0.46764018    -0.56300
C321        C  0.87667677  0.27870651  0.51093111     0.27800
C322        C  0.84293424  0.24661647  0.51063262     0.27800
C323        C  0.88376660  0.27379548  0.42614382     0.27800
C324        C  0.85022162  0.24153822  0.42600585     0.27800
C325        C  0.90240574  0.30693745  0.48425054     0.36400
C326        C  0.90532622  0.30496417  0.45140548     0.36400
C327        C  0.81484191  0.22368727  0.48328495     0.36400
C328        C  0.81778558  0.22165644  0.45052503     0.36400
C329        C  0.87296151  0.26923476  0.53045181    -0.21100
C330        C  0.85165418  0.24895370  0.53025246    -0.21100
C331        C  0.88252203  0.26251804  0.40852558    -0.21100
C332        C  0.86136238  0.24207703  0.40848828    -0.21100
C333        C  0.92074574  0.32826207  0.47784783    -0.22100
C334        C  0.92263495  0.32699219  0.45701320    -0.22100
C335        C  0.79303799  0.20754405  0.47610106    -0.22100
C336        C  0.79489739  0.20626467  0.45528937    -0.22100
C337        C  0.89637061  0.30007010  0.50494240    -0.17500
C338        C  0.82099917  0.22832323  0.50416176    -0.17500
C339        C  0.82743180  0.22399549  0.43107475    -0.17500
C340        C  0.90254972  0.29578788  0.43165867    -0.17500
H341        H  0.88442639  0.27619407  0.54350000     0.15400
H342        H  0.84351949  0.23727376  0.54309656     0.15400
H343        H  0.89546556  0.26842481  0.39685990     0.15400
H344        H  0.85482803  0.22920185  0.39675447     0.15400
H345        H  0.93203582  0.34296013  0.48731059     0.13700
H346        H  0.93562150  0.34053395  0.44721485     0.13700
H347        H  0.77753843  0.19736731  0.48500706     0.13700
H348        H  0.78107721  0.19491801  0.44492628     0.13700
H349        H  0.85534902  0.26885070  0.48441765     0.27000
H350        H  0.85906340  0.26625049  0.44894194     0.27000
O351        O  0.71942785  0.04563399  0.63619743    -0.57000
C352        C  0.75062710  0.09422011  0.67584927     0.75600
O353        O  0.71311165  0.09648691  0.61457141    -0.58100
C354        C  0.70803470  0.04035654  0.61968879     0.75600
C355        C  0.67515706  0.06347639  0.66669801     0.78000
Cd356      Cd  0.71592382  0.07717647  0.64466270     1.37500
O357        O  0.73119549  0.08987636  0.67920355    -0.57000
O358        O  0.68247862  0.05123209  0.66639019    -0.55800
C359        C  0.73274609  0.11486128  0.61642628     0.78000
O360        O  0.68639265  0.08169579  0.65622448    -0.58200
O361        O  0.75398064  0.09003585  0.65793937    -0.56600
O362        O  0.70033073  0.05178854  0.61544038    -0.56600
O363        O  0.74406586  0.11610995  0.63195101    -0.55800
O364        O  0.04543110  0.37954907  0.66167995    -0.57000
C365        C  0.08748263  0.42763918  0.61936354     0.75600
O366        O  0.01842939  0.40892809  0.62208931    -0.58100
C367        C  0.03416536  0.37879203  0.67687781     0.75600
C368        C  0.05963623  0.45085556  0.66887055     0.78000
Cd369      Cd  0.04802721  0.41194539  0.64473689     1.37500
O370        O  0.08179669  0.41347054  0.63385617    -0.57000
O371        O  0.07222788  0.44393725  0.66801885    -0.55800
C372        C  0.00884965  0.38821635  0.61768614     0.78000
O373        O  0.04181942  0.44020678  0.65781086    -0.58200
O374        O  0.07486446  0.43436063  0.61668061    -0.56600
O375        O  0.02996448  0.39352868  0.67725018    -0.56600
O376        O  0.01742883  0.37879055  0.62574367    -0.55800
N377        N  0.57058496  0.53949350  0.13520524    -0.35800
N378        N  0.53681229  0.51032677  0.16629312    -0.56300
N379        N  0.56383586  0.54369578  0.19760157    -0.35800
N380        N  0.59686126  0.57347491  0.16629555    -0.56300
C381        C  0.55242469  0.52455615  0.12337731     0.27800
C382        C  0.58465966  0.55815520  0.12343494     0.27800
C383        C  0.54393210  0.52987034  0.20774868     0.27800
C384        C  0.57576945  0.56372087  0.20764016     0.27800
C385        C  0.52838450  0.49583228  0.15031167     0.36400
C386        C  0.52506581  0.49789642  0.18306674     0.36400
C387        C  0.61182982  0.58329621  0.15060002     0.36400
C388        C  0.60810495  0.58565505  0.18320141     0.36400
C389        C  0.55516883  0.53367746  0.10383432    -0.21100
C390        C  0.57548768  0.55486738  0.10387303    -0.21100
C391        C  0.54342033  0.54109876  0.22464401    -0.21100
C392        C  0.56355286  0.56247103  0.22459231    -0.21100
C393        C  0.51138165  0.47402873  0.15697819    -0.22100
C394        C  0.50928045  0.47533567  0.17776801    -0.22100
C395        C  0.63279090  0.60160980  0.15760785    -0.22100
C396        C  0.63040150  0.60316978  0.17829162    -0.22100
C397        C  0.53370846  0.50265098  0.12953831    -0.17500
C398        C  0.60576644  0.57792732  0.12973726    -0.17500
C399        C  0.59777669  0.58278542  0.20239180    -0.17500
C400        C  0.52647447  0.50720178  0.20246054    -0.17500
H401        H  0.54362556  0.52597983  0.09089684     0.15400
H402        H  0.58253553  0.56660576  0.09097981     0.15400
H403        H  0.52991106  0.53463428  0.23581833     0.15400
H404        H  0.56858829  0.57561082  0.23575424     0.15400
H405        H  0.50099825  0.45895659  0.14769345     0.13700
H406        H  0.49697448  0.46146278  0.18770794     0.13700
H407        H  0.64788960  0.61321190  0.14858746     0.13700
H408        H  0.64335037  0.61614915  0.18842184     0.13700
H409        H  0.57409606  0.53631799  0.14985045     0.27000
H410        H  0.56984412  0.53905918  0.18569333     0.27000
N411        N  0.51314753  0.59279747  0.83856519    -0.35800
N412        N  0.54692814  0.62164666  0.80782891    -0.56300
N413        N  0.51970592  0.58839095  0.77656516    -0.35800
N414        N  0.48616911  0.55921466  0.80733625    -0.56300
C415        C  0.53116725  0.60762262  0.85058469     0.27800
C416        C  0.49876744  0.57415252  0.85021465     0.27800
C417        C  0.54012938  0.60123701  0.76709235     0.27800
C418        C  0.50747968  0.56824784  0.76677148     0.27800
C419        C  0.55559288  0.63622006  0.82374688     0.36400
C420        C  0.55899406  0.63374071  0.79105795     0.36400
C421        C  0.47126070  0.54953532  0.82301431     0.36400
C422        C  0.47452903  0.54766060  0.79035225     0.36400
C423        C  0.52794015  0.59848224  0.87018852    -0.21100
C424        C  0.50755089  0.57731980  0.86992456    -0.21100
C425        C  0.54082186  0.58915028  0.75106395    -0.21100
C426        C  0.52011377  0.56830927  0.75080730    -0.21100
C427        C  0.57310607  0.65779400  0.81703418    -0.22100
C428        C  0.57514444  0.65626342  0.79625120    -0.22100
C429        C  0.44995474  0.53186268  0.81597662    -0.22100
C430        C  0.45201790  0.53070159  0.79516992    -0.22100
C431        C  0.55008018  0.62946913  0.84450278    -0.17500
C432        C  0.47747299  0.55474980  0.84378347    -0.17500
C433        C  0.48482583  0.55024980  0.77129765    -0.17500
C434        C  0.55774891  0.62392125  0.77199799    -0.17500
H435        H  0.53910306  0.60620089  0.88335866     0.15400
H436        H  0.50003872  0.56561873  0.88282213     0.15400
H437        H  0.55477458  0.59475788  0.74060194     0.15400
H438        H  0.51496301  0.55473273  0.74012044     0.15400
H439        H  0.58387434  0.67282749  0.82627337     0.13700
H440        H  0.58781447  0.66987854  0.78631451     0.13700
H441        H  0.43476930  0.52053226  0.82499488     0.13700
H442        H  0.43877110  0.51821705  0.78492583     0.13700
H443        H  0.50983255  0.59609405  0.82389116     0.27000
H444        H  0.51356154  0.59386328  0.78760030     0.27000
O445        O  0.72634499  0.72476557  0.97070852    -0.57000
C446        C  0.68024465  0.69145619  0.01452322     0.75600
O447        O  0.70568888  0.76687612  0.99519673    -0.58100
C448        C  0.74120594  0.74560372  0.96664675     0.75600
C449        C  0.66646489  0.71717314  0.95494598     0.78000
Cd450      Cd  0.69970597  0.73041546  0.98733384     1.37500
O451        O  0.66993672  0.70020378  0.00935624    -0.57000
O452        O  0.66402507  0.72299453  0.97240887    -0.55800
C453        C  0.71402625  0.76875310  0.01291519     0.78000
O454        O  0.68430520  0.71800348  0.95245322    -0.58200
O455        O  0.69989572  0.70069287  0.00690924    -0.56600
O456        O  0.73725980  0.75951941  0.97289606    -0.56600
O457        O  0.71504880  0.75259619  0.01873240    -0.55800
O458        O  0.39075124  0.39139247  0.95326943    -0.57000
C459        C  0.42273734  0.42002545  0.01493091     0.75600
O460        O  0.38016346  0.42757426  0.96047656    -0.58100
C461        C  0.38075121  0.37091759  0.95888918     0.75600
C462        C  0.34793570  0.39841505  0.00661997     0.78000
Cd463      Cd  0.38686334  0.40597015  0.98540740     1.37500
O464        O  0.40568686  0.39938471  0.01402626    -0.57000
O465        O  0.36795797  0.41080566  0.01373393    -0.55800
C466        C  0.40107524  0.44381433  0.95882846     0.78000
O467        O  0.34578326  0.38894216  0.98970923    -0.58200
O468        O  0.42318052  0.43329404  0.00178342    -0.56600
O469        O  0.37443572  0.36664630  0.97746189    -0.56600
O470        O  0.41477878  0.44245611  0.96984355    -0.55800
N471        N  0.76743162  0.93928678  0.17222218    -0.35800
N472        N  0.76695811  0.90993048  0.14121191    -0.56300
N473        N  0.75552008  0.93123683  0.11047584    -0.35800
N474        N  0.75915089  0.96270619  0.14092262    -0.56300
C475        C  0.77477009  0.92889338  0.18357249     0.27800
C476        C  0.77096614  0.95677128  0.18339058     0.27800
C477        C  0.75916082  0.91856603  0.09834035     0.27800
C478        C  0.75475666  0.94598272  0.09815966     0.27800
C479        C  0.76670516  0.89916198  0.15843234     0.36400
C480        C  0.76075917  0.89514669  0.12566136     0.36400
C481        C  0.75636212  0.97150312  0.15787309     0.36400
C482        C  0.74974496  0.96695446  0.12514550     0.36400
C483        C  0.78308798  0.93988308  0.20224022    -0.21100
C484        C  0.78076663  0.95753138  0.20209751    -0.21100
C485        C  0.76077628  0.92536928  0.07803602    -0.21100
C486        C  0.75796536  0.94267676  0.07791713    -0.21100
C487        C  0.76089405  0.87770894  0.15371533    -0.22100
C488        C  0.75709960  0.87515781  0.13295389    -0.22100
C489        C  0.74555439  0.98175651  0.15271154    -0.22100
C490        C  0.74146158  0.97895958  0.13198615    -0.22100
C491        C  0.77208754  0.90848976  0.17835416    -0.17500
C492        C  0.76358944  0.97061585  0.17794704    -0.17500
C493        C  0.74903654  0.96073796  0.10450079    -0.17500
C494        C  0.75866626  0.89953690  0.10488817    -0.17500
H495        H  0.78965796  0.93532815  0.21484313     0.15400
H496        H  0.78522307  0.96921501  0.21457447     0.15400
H497        H  0.76308506  0.91816314  0.06464931     0.15400
H498        H  0.75771509  0.95142802  0.06441152     0.15400
H499        H  0.75931530  0.86508710  0.16416472     0.13700
H500        H  0.75196040  0.86017377  0.12428806     0.13700
H501        H  0.74080067  0.99013306  0.16282912     0.13700
H502        H  0.73306673  0.98484517  0.12302938     0.13700
H503        H  0.75769057  0.93283519  0.15897022     0.27000
H504        H  0.75049555  0.92780920  0.12573020     0.27000
N505        N  0.66538089  0.87820163  0.45629636    -0.35800
N506        N  0.67592416  0.85493620  0.48624641    -0.56300
N507        N  0.68002839  0.88519172  0.51727590    -0.35800
N508        N  0.66690590  0.90673315  0.48766586    -0.56300
C509        C  0.66112898  0.86040912  0.44528557     0.27800
C510        C  0.65552522  0.88692142  0.44622417     0.27800
C511        C  0.68063305  0.87004957  0.52921028     0.27800
C512        C  0.67714896  0.89808979  0.52982650     0.27800
C513        C  0.67903759  0.84741146  0.46864206     0.36400
C514        C  0.68547579  0.85004680  0.50135507     0.36400
C515        C  0.66596134  0.91738378  0.47086368     0.36400
C516        C  0.67489608  0.92184152  0.50314322     0.36400
C517        C  0.64829976  0.85762613  0.42805539    -0.21100
C518        C  0.64469007  0.87435800  0.42868472    -0.21100
C519        C  0.67794180  0.87329556  0.54961940    -0.21100
C520        C  0.67599048  0.89115006  0.55003061    -0.21100
C521        C  0.69030349  0.83737013  0.47261080    -0.22100
C522        C  0.69432630  0.83898717  0.49338392    -0.22100
C523        C  0.67299073  0.93918244  0.47577948    -0.22100
C524        C  0.67842389  0.94192625  0.49627166    -0.22100
C525        C  0.67068002  0.84833165  0.44923895    -0.17500
C526        C  0.65843445  0.90744900  0.45124880    -0.17500
C527        C  0.67797816  0.91739200  0.52363380    -0.17500
C528        C  0.68574695  0.85494682  0.52232890    -0.17500
H529        H  0.64268631  0.84522413  0.41600061     0.15400
H530        H  0.63576434  0.87740770  0.41720484     0.15400
H531        H  0.67810771  0.86423892  0.56291364     0.15400
H532        H  0.67445194  0.89849541  0.56373048     0.15400
H533        H  0.69507420  0.82962835  0.46170352     0.13700
H534        H  0.70292540  0.83287942  0.50163613     0.13700
H535        H  0.67421788  0.95187233  0.46568682     0.13700
H536        H  0.68440556  0.95707263  0.50503769     0.13700
H537        H  0.67727102  0.88596792  0.46809321     0.27000
H538        H  0.68455494  0.88877411  0.50190677     0.27000
O539        O  0.69390032  0.76160867  0.32781948    -0.57000
C540        C  0.69340954  0.71947840  0.29243116     0.75600
O541        O  0.75173509  0.80072371  0.30460482    -0.58100
C542        C  0.70518723  0.77340226  0.34330412     0.75600
C543        C  0.74829014  0.74635705  0.33922860     0.78000
Cd544      Cd  0.72510072  0.76012422  0.31446523     1.37500
O545        O  0.68690668  0.72992652  0.30202833    -0.57000
O546        O  0.72752795  0.73850404  0.34135582    -0.55800
C547        C  0.74878864  0.79741115  0.28547857     0.78000
O548        O  0.75887544  0.76088378  0.32495180    -0.58200
O549        O  0.71451707  0.72806711  0.29323325    -0.56600
O550        O  0.72518084  0.77860825  0.34504460    -0.56600
O551        O  0.73563435  0.77695029  0.27992681    -0.55800
O552        O  0.69798462  0.02873297  0.28537398    -0.57000
C553        C  0.72784579  0.09440989  0.33534665     0.75600
O554        O  0.69798221  0.07197762  0.28317126    -0.58100
C555        C  0.71926678  0.03875812  0.28345980     0.75600
C556        C  0.68044164  0.01759405  0.34323481     0.78000
Cd557      Cd  0.70039287  0.05309761  0.31261840     1.37500
O558        O  0.73668529  0.08737590  0.32395269    -0.57000
O559        O  0.70105734  0.03455360  0.34388747    -0.55800
C560        C  0.67820232  0.06673934  0.28637878     0.78000
O561        O  0.66857618  0.01690600  0.32837540    -0.58200
O562        O  0.70630120  0.08223282  0.33597118    -0.56600
O563        O  0.73185312  0.05506793  0.29560367    -0.56600
O564        O  0.66793419  0.05432390  0.30201214    -0.55800
N565        N  0.10816866  0.61863943  0.83300778    -0.35800
N566        N  0.10077204  0.64279845  0.80159079    -0.56300
N567        N  0.09404425  0.61041047  0.77039933    -0.35800
N568        N  0.09878615  0.58484716  0.80205278    -0.56300
C569        C  0.10692129  0.63303099  0.84507299     0.27800
C570        C  0.10542432  0.60199255  0.84534957     0.27800
C571        C  0.08721983  0.62163057  0.75963636     0.27800
C572        C  0.08737573  0.59149132  0.75970528     0.27800
C573        C  0.10553726  0.65673949  0.81756287     0.36400
C574        C  0.09801344  0.65236381  0.78495276     0.36400
C575        C  0.10373069  0.57664280  0.81833708     0.36400
C576        C  0.09764513  0.57302671  0.78554410     0.36400
C577        C  0.10456821  0.62607333  0.86542746    -0.21100
C578        C  0.10356292  0.60648870  0.86559171    -0.21100
C579        C  0.07667035  0.61001990  0.74159572    -0.21100
C580        C  0.07675626  0.59101897  0.74165545    -0.21100
C581        C  0.10588413  0.67528168  0.81102373    -0.22100
C582        C  0.10112746  0.67252736  0.79041214    -0.22100
C583        C  0.10567344  0.55952558  0.81216526    -0.22100
C584        C  0.10197197  0.55733791  0.79138546    -0.22100
C585        C  0.10705546  0.65184912  0.83836064    -0.17500
C586        C  0.10447097  0.58276787  0.83899533    -0.17500
C587        C  0.09086106  0.57476652  0.76558481    -0.17500
C588        C  0.09050530  0.64223089  0.76536203    -0.17500
H589        H  0.10314330  0.63395122  0.87878779     0.15400
H590        H  0.10133850  0.59650370  0.87910085     0.15400
H591        H  0.06949315  0.61464791  0.72963868     0.15400
H592        H  0.06960714  0.57820160  0.72982125     0.15400
H593        H  0.10855184  0.68900181  0.82027462     0.13700
H594        H  0.09940623  0.68375038  0.78072765     0.13700
H595        H  0.10909010  0.54943061  0.82171019     0.13700
H596        H  0.10191210  0.54517529  0.78177272     0.13700
H597        H  0.11182095  0.62063954  0.81744773     0.27000
H598        H  0.10436704  0.61634797  0.78334258     0.27000
O599        O  0.06335202  0.75797977  0.00938546    -0.57000
C600        C  0.07535770  0.72783878  0.94653587     0.75600
O601        O  0.04506922  0.70053623  0.99166900    -0.58100
C602        C  0.08330698  0.77449235  0.00462294     0.75600
C603        C  0.02529624  0.74742636  0.95680716     0.78000
Cd604      Cd  0.05353820  0.73671824  0.97797405     1.37500
O605        O  0.05855934  0.72863089  0.94282471    -0.57000
O606        O  0.01848256  0.72701148  0.95984522    -0.55800
C607        C  0.03140669  0.69747633  0.00556701     0.78000
O608        O  0.04486693  0.76262546  0.96371720    -0.58200
O609        O  0.08284352  0.73210831  0.96481219    -0.56600
O610        O  0.09015053  0.77358846  0.98704778    -0.56600
O611        O  0.02666403  0.71182495  0.00589422    -0.55800
N612        N  0.00278969  0.55491941  0.12643148    -0.35800
N613        N  0.01180461  0.53310852  0.15886490    -0.56300
N614        N  0.01038210  0.56128501  0.18949546    -0.35800
N615        N  0.00341901  0.58442487  0.15674960    -0.56300
C616        C  0.00870308  0.54336966  0.11535599     0.27800
C617        C  0.00557958  0.57161440  0.11411375     0.27800
C618        C  0.02007892  0.55298678  0.20057918     0.27800
C619        C  0.01436688  0.57951945  0.19964149     0.27800
C620        C  0.00764663  0.51898640  0.14325190     0.36400
C621        C  0.01277050  0.52315647  0.17615664     0.36400
C622        C  0.99718982  0.59083275  0.13995867     0.36400
C623        C  0.99973507  0.59319042  0.17315523     0.36400
C624        C  0.01491211  0.55252730  0.09568878    -0.21100
C625        C  0.01308314  0.57044259  0.09494320    -0.21100
C626        C  0.03005567  0.56590024  0.21812817    -0.21100
C627        C  0.02642644  0.58264140  0.21754879    -0.21100
C628        C  0.00585015  0.49992493  0.15064362    -0.22100
C629        C  0.00912367  0.50257584  0.17151554    -0.22100
C630        C  0.98939478  0.60360380  0.14570306    -0.22100
C631        C  0.99088153  0.60499494  0.16674961    -0.22100
C632        C  0.00784960  0.52425526  0.12226563    -0.17500
C633        C  0.00067080  0.58729477  0.11946265    -0.17500
C634        C  0.00670495  0.59290367  0.19348826    -0.17500
C635        C  0.01935691  0.53354081  0.19565612    -0.17500
H636        H  0.02033636  0.54696853  0.08318609     0.15400
H637        H  0.01678031  0.58129852  0.08172307     0.15400
H638        H  0.03899926  0.56350329  0.23012635     0.15400
H639        H  0.03207751  0.59566325  0.22899437     0.15400
H640        H  0.00311877  0.48590747  0.14184477     0.13700
H641        H  0.00937832  0.49097338  0.18200942     0.13700
H642        H  0.98368564  0.61148069  0.13572418     0.13700
H643        H  0.98660116  0.61424150  0.17620024     0.13700
H644        H  0.99518245  0.55023330  0.14084190     0.27000
H645        H  0.99976105  0.55366467  0.17680803     0.27000
O646        O  0.02598713  0.42896054  0.00521043    -0.57000
C647        C  0.02760926  0.39299264  0.96035196     0.75600
O648        O  0.08426186  0.47309100  0.96529760    -0.58100
C649        C  0.03688327  0.44959835  0.01053286     0.75600
C650        C  0.08446515  0.42778110  0.00622793     0.78000
Cd651      Cd  0.05608322  0.43537327  0.98155053     1.37500
O652        O  0.01899240  0.40135856  0.97015758    -0.57000
O653        O  0.06615278  0.42427285  0.01251178    -0.55800
C654        C  0.07281102  0.46892290  0.94896827     0.78000
O655        O  0.09046678  0.43568992  0.98814372    -0.58200
O656        O  0.04905457  0.40382592  0.96125516    -0.56600
O657        O  0.05596554  0.46334047  0.00200087    -0.56600
O658        O  0.05404601  0.44952553  0.94781894    -0.55800
N659        N  0.19157349  0.94434642  0.17390387    -0.35800
N660        N  0.22744649  0.97294740  0.14406041    -0.56300
N661        N  0.20043718  0.94144192  0.11165337    -0.35800
N662        N  0.16525887  0.91230772  0.14137492    -0.56300
C663        C  0.20950127  0.95792586  0.18649965     0.27800
C664        C  0.17586750  0.92568974  0.18494277     0.27800
C665        C  0.22083953  0.95489968  0.10223853     0.27800
C666        C  0.18833675  0.92168314  0.10121051     0.27800
C667        C  0.23595269  0.98671403  0.16052955     0.36400
C668        C  0.24005228  0.98584783  0.12779636     0.36400
C669        C  0.14943065  0.90289517  0.15637680     0.36400
C670        C  0.15449343  0.90095729  0.12400028     0.36400
C671        C  0.20490618  0.94806753  0.20590464    -0.21100
C672        C  0.18365482  0.92772172  0.20492890    -0.21100
C673        C  0.22160555  0.94378093  0.08540392    -0.21100
C674        C  0.20108689  0.92272706  0.08480476    -0.21100
C675        C  0.25401709  0.00845160  0.15471493    -0.22100
C676        C  0.25654002  0.00792851  0.13391475    -0.22100
C677        C  0.12836935  0.88577301  0.14841656    -0.22100
C678        C  0.13160627  0.88449307  0.12786193    -0.22100
C679        C  0.22965811  0.97919283  0.18102069    -0.17500
C680        C  0.15459902  0.90702800  0.17749359    -0.17500
C681        C  0.16573237  0.90317445  0.10555662    -0.17500
C682        C  0.23841164  0.97728727  0.10801283    -0.17500
H683        H  0.21579460  0.95474260  0.21934392     0.15400
H684        H  0.17504341  0.91568833  0.21746504     0.15400
H685        H  0.23553967  0.95013906  0.07472302     0.15400
H686        H  0.19608535  0.90974105  0.07348267     0.15400
H687        H  0.26467711  0.02297718  0.16455270     0.13700
H688        H  0.26952893  0.02196129  0.12451243     0.13700
H689        H  0.11260837  0.87463263  0.15676117     0.13700
H690        H  0.11882727  0.87224888  0.11716940     0.13700
H691        H  0.18943212  0.94842017  0.15909860     0.27000
H692        H  0.19432370  0.94638634  0.12320030     0.27000
N693        N  0.23016560  0.88347227  0.45545006    -0.35800
N694        N  0.25911410  0.91883576  0.48480222    -0.56300
N695        N  0.22542029  0.89193253  0.51642165    -0.35800
N696        N  0.19752618  0.85494452  0.48769962    -0.56300
C697        C  0.24904986  0.89711704  0.44385347     0.27800
C698        C  0.21664865  0.86350438  0.44547178     0.27800
C699        C  0.24276248  0.90838958  0.52801575     0.27800
C700        C  0.21020332  0.87528422  0.52938110     0.27800
C701        C  0.27026950  0.93019306  0.46746263     0.36400
C702        C  0.26792347  0.93442423  0.49990485     0.36400
C703        C  0.18508364  0.84308937  0.47102259     0.36400
C704        C  0.18263736  0.84780450  0.50343098     0.36400
C705        C  0.24755351  0.88566568  0.42629043    -0.21100
C706        C  0.22714034  0.86442158  0.42734047    -0.21100
C707        C  0.23852799  0.90215738  0.54859039    -0.21100
C708        C  0.21794079  0.88120595  0.54945588    -0.21100
C709        C  0.28664194  0.95297906  0.47170909    -0.22100
C710        C  0.28513720  0.95565121  0.49227553    -0.22100
C711        C  0.16229423  0.82801084  0.47636114    -0.22100
C712        C  0.16078419  0.83092233  0.49690337    -0.22100
C713        C  0.26670587  0.92015226  0.44801785    -0.17500
C714        C  0.19401314  0.84564647  0.45105406    -0.17500
C715        C  0.18855991  0.85600271  0.52373620    -0.17500
C716        C  0.26136558  0.92963468  0.52068921    -0.17500
H717        H  0.25970113  0.89209979  0.41383216     0.15400
H718        H  0.22044975  0.85134868  0.41578118     0.15400
H719        H  0.24897821  0.91189034  0.56164981     0.15400
H720        H  0.20939632  0.87163810  0.56332012     0.15400
H721        H  0.29856357  0.96630700  0.46114941     0.13700
H722        H  0.29559948  0.97140528  0.50065955     0.13700
H723        H  0.14810057  0.81632830  0.46648356     0.13700
H724        H  0.14530482  0.82188998  0.50591812     0.13700
H725        H  0.22524982  0.88860012  0.46781020     0.27000
H726        H  0.22256990  0.89337886  0.50103062     0.27000
O727        O  0.01595623  0.76120908  0.33424405    -0.57000
C728        C  0.05748861  0.78819673  0.28517971     0.75600
O729        O  0.05116143  0.75651253  0.34962442    -0.58100
C730        C  0.99910257  0.74112423  0.33845083     0.75600
C731        C  0.02474839  0.71120107  0.28968639     0.78000
Cd732      Cd  0.03690407  0.75017332  0.31403082     1.37500
O733        O  0.03673982  0.77161490  0.28385800    -0.57000
O734        O  0.01658842  0.72238741  0.28606847    -0.55800
C735        C  0.07044350  0.76084853  0.34546834     0.78000
O736        O  0.03809503  0.71772045  0.30497506    -0.58200
O737        O  0.06801872  0.78791548  0.30066112    -0.56600
O738        O  0.99901998  0.72529405  0.33020741    -0.56600
O739        O  0.07377001  0.75897550  0.32676749    -0.55800
O740        O  0.38146350  0.10584002  0.32524865    -0.57000
C741        C  0.34957833  0.05905814  0.28864205     0.75600
O742        O  0.42438775  0.08241790  0.30577307    -0.58100
C743        C  0.39977848  0.11858001  0.33521540     0.75600
C744        C  0.37188738  0.04454448  0.34831685     0.78000
Cd745      Cd  0.38840828  0.07794869  0.31517518     1.37500
O746        O  0.35485644  0.04684879  0.29715529    -0.57000
O747        O  0.37870991  0.04184333  0.33149110    -0.55800
C748        C  0.42479641  0.08884199  0.28746765     0.78000
O749        O  0.37372627  0.06296116  0.34993936    -0.58200
O750        O  0.36222347  0.08005678  0.29265009    -0.56600
O751        O  0.41350301  0.11294060  0.33527990    -0.56600
O752        O  0.40882424  0.09046818  0.28257327    -0.55800
N753        N  0.32483941  0.21051436  0.78583626    -0.35800
N754        N  0.32463011  0.23912964  0.81699994    -0.56300
N755        N  0.33817030  0.21888504  0.84679386    -0.35800
N756        N  0.33602685  0.18891005  0.81605188    -0.56300
C757        C  0.31467009  0.21866229  0.77542135     0.27800
C758        C  0.32212049  0.19349768  0.77456181     0.27800
C759        C  0.33522367  0.23191806  0.85909127     0.27800
C760        C  0.33898842  0.20411613  0.85903957     0.27800
C761        C  0.32365583  0.24915215  0.79977256     0.36400
C762        C  0.33268591  0.25483046  0.83199359     0.36400
C763        C  0.33962963  0.18106193  0.79893388     0.36400
C764        C  0.34497628  0.18415104  0.83179394     0.36400
C765        C  0.30520686  0.20654953  0.75739177    -0.21100
C766        C  0.31000925  0.19069140  0.75681211    -0.21100
C767        C  0.33410837  0.22538037  0.87939895    -0.21100
C768        C  0.33637541  0.20772474  0.87936500    -0.21100
C769        C  0.33046962  0.27106088  0.80397559    -0.22100
C770        C  0.33620745  0.27465946  0.82443425    -0.22100
C771        C  0.35054868  0.17087599  0.80386051    -0.22100
C772        C  0.35374115  0.17264117  0.82474239    -0.22100
C773        C  0.31672699  0.23877605  0.78029910    -0.17500
C774        C  0.33208011  0.18191813  0.77910500    -0.17500
C775        C  0.34470771  0.18943612  0.85252947    -0.17500
C776        C  0.33635113  0.25122949  0.85253196    -0.17500
H777        H  0.29655717  0.20947173  0.74549606     0.15400
H778        H  0.30562364  0.17885911  0.74448779     0.15400
H779        H  0.33253123  0.23299338  0.89288232     0.15400
H780        H  0.33694399  0.19914748  0.89285235     0.15400
H781        H  0.33157798  0.28331599  0.79334715     0.13700
H782        H  0.34247259  0.29015830  0.83273677     0.13700
H783        H  0.35555904  0.16286813  0.79354368     0.13700
H784        H  0.36173579  0.16630275  0.83366593     0.13700
H785        H  0.33599376  0.21840922  0.79797309     0.27000
H786        H  0.34294339  0.22233462  0.83159542     0.27000
N787        N  0.42307512  0.26732266  0.50558659    -0.35800
N788        N  0.42600414  0.24193792  0.47257276    -0.56300
N789        N  0.40937072  0.26041750  0.44411297    -0.35800
N790        N  0.40922113  0.28785897  0.47674002    -0.56300
C791        C  0.43302109  0.25870224  0.51557025     0.27800
C792        C  0.42561179  0.28388811  0.51749474     0.27800
C793        C  0.41478304  0.25004691  0.43073865     0.27800
C794        C  0.40547410  0.27377719  0.43300699     0.27800
C795        C  0.42814286  0.23162062  0.48894569     0.36400
C796        C  0.42211032  0.22884929  0.45612608     0.36400
C797        C  0.40664809  0.29589368  0.49432629     0.36400
C798        C  0.39843289  0.29146788  0.46188341     0.36400
C799        C  0.44191106  0.26979486  0.53411357    -0.21100
C800        C  0.43739531  0.28583944  0.53525839    -0.21100
C801        C  0.41409849  0.25674982  0.41085770    -0.21100
C802        C  0.40826061  0.27175042  0.41228761    -0.21100
C803        C  0.42633775  0.21231479  0.48278524    -0.22100
C804        C  0.42267676  0.21064861  0.46195972    -0.22100
C805        C  0.39442447  0.30495127  0.49056497    -0.22100
C806        C  0.38928573  0.30221625  0.46998170    -0.22100
C807        C  0.43226393  0.23962293  0.50932881    -0.17500
C808        C  0.41591588  0.29590752  0.51357577    -0.17500
C809        C  0.39783682  0.28642103  0.44089004    -0.17500
C810        C  0.41834156  0.23323236  0.43584631    -0.17500
H811        H  0.45045354  0.26642428  0.54574472     0.15400
H812        H  0.44177635  0.29724025  0.54796818     0.15400
H813        H  0.41704929  0.25109371  0.39673141     0.15400
H814        H  0.40588906  0.27987939  0.39946845     0.15400
H815        H  0.42755680  0.20064976  0.49229188     0.13700
H816        H  0.42041829  0.19738885  0.45228443     0.13700
H817        H  0.38973522  0.31276097  0.50147637     0.13700
H818        H  0.37994980  0.30759793  0.46189399     0.13700
H819        H  0.41239845  0.26001497  0.49295279     0.27000
H820        H  0.40562565  0.25640056  0.45954034     0.27000
O821        O  0.36036253  0.09964201  0.65768499    -0.57000
C822        C  0.35682338  0.05775812  0.61934235     0.75600
O823        O  0.40062834  0.13114699  0.63236088    -0.58100
C824        C  0.36951886  0.10709863  0.67511944     0.75600
C825        C  0.41416284  0.08172888  0.66891010     0.78000
Cd826      Cd  0.38906680  0.09427050  0.64554695     1.37500
O827        O  0.35092296  0.05983598  0.63692976    -0.57000
O828        O  0.42387294  0.10158125  0.66148272    -0.55800
C829        C  0.41342969  0.13264662  0.61830351     0.78000
O830        O  0.39327706  0.06770156  0.66461145    -0.58200
O831        O  0.37744827  0.07227219  0.61454182    -0.56600
O832        O  0.38718124  0.10776766  0.67881295    -0.56600
O833        O  0.41621733  0.11690515  0.61764842    -0.55800
O834        O  0.39763105  0.41692949  0.65824782    -0.57000
C835        C  0.37812909  0.37056587  0.61777228     0.75600
O836        O  0.32818810  0.34675416  0.65620767    -0.58100
C837        C  0.39025859  0.42427386  0.67107627     0.75600
C838        C  0.33950446  0.40455246  0.62408023     0.78000
Cd839      Cd  0.35973963  0.38606766  0.64618101     1.37500
O840        O  0.38981783  0.38326849  0.63267064    -0.57000
O841        O  0.35952084  0.41050451  0.62071043    -0.55800
C842        C  0.33617678  0.34825988  0.67399029     0.78000
O843        O  0.32830725  0.38934881  0.63772673    -0.58200
O844        O  0.35822864  0.36563805  0.61596501    -0.56600
O845        O  0.36884415  0.41389859  0.67192078    -0.56600
O846        O  0.35389114  0.36735171  0.67889056    -0.55800
C847        C  0.37871187  0.33735232  0.57373088    -0.01200
C848        C  0.40006280  0.34101711  0.57600798     0.07400
C849        C  0.41497986  0.35546430  0.59150041    -0.07100
C850        C  0.40854637  0.36569532  0.60515256     0.04900
C851        C  0.38673747  0.36143233  0.60329271    -0.14400
C852        C  0.37221175  0.34740654  0.58731628    -0.07700
C853        C  0.40678021  0.32977192  0.56211234     0.05800
C854        C  0.42302322  0.34275113  0.54680436    -0.08800
C855        C  0.42681064  0.33213812  0.53117353     0.00800
C856        C  0.41431333  0.30818911  0.53090174     0.00700
C857        C  0.39903367  0.29535639  0.54689049    -0.12400
C858        C  0.39518523  0.30593153  0.56243867     0.01100
C859        C  0.44293024  0.34602033  0.51517841     0.40400
C860        C  0.37856630  0.29195025  0.57810457     0.37000
C861        C  0.36324364  0.32339969  0.55739791     0.36800
C862        C  0.42463674  0.38028407  0.62086645     0.37500
N863        N  0.45574668  0.35713528  0.50228015    -0.43300
N864        N  0.36513510  0.28077990  0.59058565    -0.43700
N865        N  0.43753450  0.39201186  0.63344371    -0.41100
N866        N  0.35097550  0.31214919  0.54428479    -0.42500
H867        H  0.35556190  0.34409500  0.58541766     0.13700
H868        H  0.43154407  0.35850355  0.59307062     0.10200
H869        H  0.43193563  0.36107963  0.54652907     0.11200
H870        H  0.38952813  0.27696162  0.54680320     0.17000
C871        C  0.43061643  0.18773007  0.59355240    -0.01200
C872        C  0.43361463  0.18429571  0.57297020     0.07400
C873        C  0.43328804  0.16533679  0.56779149    -0.07100
C874        C  0.42825341  0.14883078  0.58263545     0.04900
C875        C  0.42347538  0.15138038  0.60304714    -0.14400
C876        C  0.42555851  0.17131246  0.60838246    -0.07700
C877        C  0.43349710  0.19833594  0.55638570     0.05800
C878        C  0.45376036  0.21454815  0.54608225    -0.08800
C879        C  0.45388139  0.22837244  0.53069656     0.00800
C880        C  0.43347947  0.22585628  0.52558636     0.00700
C881        C  0.41325248  0.20952439  0.53579640    -0.12400
C882        C  0.41307616  0.19569858  0.55103684     0.01100
C883        C  0.47500130  0.24509518  0.52049202     0.40400
C884        C  0.39170848  0.17869575  0.56083802     0.37000
C885        C  0.43142780  0.20740099  0.59950725     0.36800
C886        C  0.42621735  0.12869241  0.57602245     0.37500
N887        N  0.49195967  0.25852778  0.51233360    -0.43300
N888        N  0.37464349  0.16504004  0.56872934    -0.43700
N889        N  0.42454902  0.11255749  0.57065044    -0.41100
N890        N  0.43205112  0.22317705  0.60415523    -0.42500
H891        H  0.42223657  0.17363213  0.62402000     0.13700
H892        H  0.43554145  0.16273144  0.55188605     0.10200
H893        H  0.46943210  0.21651085  0.55020134     0.11200
H894        H  0.39753786  0.20750445  0.53169967     0.17000
C895        C  0.32446874  0.31669219  0.72374304    -0.01200
C896        C  0.31688070  0.29492459  0.71694082     0.07400
C897        C  0.31301763  0.28986253  0.69595026    -0.07100
C898        C  0.31762517  0.30662232  0.68156733     0.04900
C899        C  0.32638966  0.32882585  0.68832537    -0.14400
C900        C  0.32912497  0.33341021  0.70944953    -0.07700
C901        C  0.31521624  0.27821655  0.73148830     0.05800
C902        C  0.29743695  0.26755930  0.74584909    -0.08800
C903        C  0.29728133  0.25428966  0.76178703     0.00800
C904        C  0.31495656  0.25133449  0.76314192     0.00700
C905        C  0.33234014  0.26147603  0.74841941    -0.12400
C906        C  0.33276262  0.27507804  0.73278903     0.01100
C907        C  0.27936649  0.24458976  0.77690510     0.40400
C908        C  0.35221832  0.28693616  0.71924497     0.37000
C909        C  0.32909002  0.32265648  0.74520372     0.36800
C910        C  0.31501717  0.30110022  0.66000375     0.37500
N911        N  0.26505207  0.23703038  0.78906654    -0.43300
N912        N  0.36799872  0.29654506  0.70861952    -0.43700
N913        N  0.31299578  0.29673888  0.64271214    -0.41100
N914        N  0.33281326  0.32730996  0.76241523    -0.42500
H915        H  0.33589401  0.35042087  0.71475973     0.13700
H916        H  0.30731885  0.27310096  0.69077590     0.10200
H917        H  0.28419745  0.27036814  0.74503668     0.11200
H918        H  0.34610090  0.25944093  0.74966714     0.17000
C919        C  0.32498022  0.13446691  0.74786563    -0.01200
C920        C  0.34223663  0.14675700  0.73306840     0.07400
C921        C  0.35512363  0.17055889  0.73251313    -0.07100
C922        C  0.35150729  0.18229024  0.74696544     0.04900
C923        C  0.33475202  0.17003452  0.76224687    -0.14400
C924        C  0.32131500  0.14617885  0.76232410    -0.07700
C925        C  0.34826819  0.13527931  0.71890074     0.05800
C926        C  0.33476987  0.12448247  0.70149537    -0.08800
C927        C  0.34085108  0.11458435  0.68715672     0.00800
C928        C  0.36085561  0.11546401  0.69031010     0.00700
C929        C  0.37385432  0.12575406  0.70820263    -0.12400
C930        C  0.36777394  0.13565910  0.72238712     0.01100
C931        C  0.32631018  0.10394798  0.66942242     0.40400
C932        C  0.38187632  0.14624474  0.74038435     0.37000
C933        C  0.31156295  0.10995783  0.74899810     0.36800
C934        C  0.36570082  0.20685541  0.74626868     0.37500
N935        N  0.31455716  0.09546026  0.65525619    -0.43300
N936        N  0.39317745  0.15471899  0.75479871    -0.43700
N937        N  0.37706971  0.22653679  0.74560952    -0.41100
N938        N  0.30083529  0.09030772  0.74990757    -0.42500
H939        H  0.30844093  0.13678841  0.77408380     0.13700
H940        H  0.36841414  0.17995791  0.72108396     0.10200
H941        H  0.31966656  0.12414370  0.69896777     0.11200
H942        H  0.38915492  0.12652907  0.71100938     0.17000
C943        C  0.39293873  0.18234478  0.40106638    -0.01200
C944        C  0.41180354  0.18816915  0.38891981     0.07400
C945        C  0.43268522  0.20946592  0.39163952    -0.07100
C946        C  0.43515031  0.22452782  0.40662975     0.04900
C947        C  0.41647392  0.21833755  0.41914522    -0.14400
C948        C  0.39543970  0.19740771  0.41602833    -0.07700
C949        C  0.41029602  0.17188960  0.37398325     0.05800
C950        C  0.39481091  0.16416989  0.35755691    -0.08800
C951        C  0.39168320  0.14749910  0.34416963     0.00800
C952        C  0.40434259  0.13827469  0.34709649     0.00700
C953        C  0.42061928  0.14688427  0.36294851    -0.12400
C954        C  0.42358179  0.16339834  0.37638125     0.01100
C955        C  0.37539540  0.14029531  0.32763382     0.40400
C956        C  0.43953464  0.17046002  0.39316535     0.37000
C957        C  0.37101939  0.16076754  0.39892978     0.36800
C958        C  0.45693262  0.24618330  0.40891309     0.37500
N959        N  0.36235469  0.13454310  0.31438114    -0.43300
N960        N  0.45233242  0.17611245  0.40660630    -0.43700
N961        N  0.47440578  0.26357828  0.41059462    -0.41100
N962        N  0.35338271  0.14354885  0.39720223    -0.42500
H963        H  0.38102505  0.19271879  0.42556472     0.13700
H964        H  0.44715274  0.21419588  0.38216954     0.10200
H965        H  0.38486418  0.17095711  0.35540100     0.11200
H966        H  0.43045110  0.14002308  0.36545055     0.17000
C967        C  0.27862003  0.97900490  0.55484241    -0.01200
C968        C  0.29970431  0.98486828  0.56265567     0.07400
C969        C  0.30775138  0.97194190  0.55721714    -0.07100
C970        C  0.29533202  0.95365114  0.54380574     0.04900
C971        C  0.27455139  0.94815500  0.53568624    -0.14400
C972        C  0.26623270  0.96072308  0.54139000    -0.07700
C973        C  0.31369531  0.00434551  0.57658081     0.05800
C974        C  0.30490119  0.00414446  0.59577342    -0.08800
C975        C  0.31817203  0.02163745  0.60984986     0.00800
C976        C  0.34097309  0.03948857  0.60486934     0.00700
C977        C  0.34935411  0.03989512  0.58531609    -0.12400
C978        C  0.33596095  0.02266690  0.57120352     0.01100
C979        C  0.30779872  0.02059123  0.62910426     0.40400
C980        C  0.34543754  0.02432687  0.55123581     0.37000
C981        C  0.26964385  0.99177206  0.56004301     0.36800
C982        C  0.30405346  0.94064776  0.53866094     0.37500
N983        N  0.29918550  0.01959826  0.64440137    -0.43300
N984        N  0.35315158  0.02578784  0.53527597    -0.43700
N985        N  0.31097799  0.93015366  0.53457700    -0.41100
N986        N  0.26243148  0.00195843  0.56432752    -0.42500
H987        H  0.25017347  0.95636830  0.53510104     0.13700
H988        H  0.32378047  0.97619136  0.56348401     0.10200
H989        H  0.28768461  0.99008784  0.59985842     0.11200
H990        H  0.36657432  0.05368977  0.58096091     0.17000
C991        C  0.15656447  0.82823292  0.40402699    -0.01200
C992        C  0.14377827  0.80431645  0.40485743     0.07400
C993        C  0.14908000  0.79384007  0.41976726    -0.07100
C994        C  0.16625241  0.80694790  0.43439588     0.04900
C995        C  0.17801140  0.83086158  0.43434556    -0.14400
C996        C  0.17333449  0.84123559  0.41878890    -0.07700
C997        C  0.12390857  0.79026808  0.39105404     0.05800
C998        C  0.12639874  0.78151185  0.37303652    -0.08800
C999        C  0.10891366  0.77095410  0.35827885     0.00800
C1000       C  0.08838392  0.76895184  0.36156181     0.00700
C1001       C  0.08560875  0.77669806  0.38024772    -0.12400
C1002       C  0.10317280  0.78742853  0.39482295     0.01100
C1003       C  0.11276051  0.76271268  0.33986531     0.40400
C1004       C  0.09996969  0.79629150  0.41319748     0.37000
C1005       C  0.15248027  0.83978776  0.38833386     0.36800
C1006       C  0.17117652  0.79555996  0.44953253     0.37500
N1007       N  0.11591019  0.75613036  0.32511624    -0.43300
N1008       N  0.09756838  0.80353530  0.42789924    -0.43700
N1009       N  0.17507770  0.78640935  0.46168517    -0.41100
N1010       N  0.14931834  0.84909163  0.37570840    -0.42500
H1011       H  0.18242444  0.85959085  0.41853602     0.13700
H1012       H  0.13942956  0.77544003  0.42027417     0.10200
H1013       H  0.14236184  0.78366887  0.37017289     0.11200
H1014       H  0.07004655  0.77531687  0.38315708     0.17000
C1015       C  0.29393464  0.96667948  0.40785862    -0.01200
C1016       C  0.31530100  0.97042809  0.40500994     0.07400
C1017       C  0.31969137  0.95591658  0.41490406    -0.07100
C1018       C  0.30345448  0.93843871  0.42806900     0.04900
C1019       C  0.28237621  0.93512646  0.43122262    -0.14400
C1020       C  0.27766870  0.94905236  0.42075553    -0.07700
C1021       C  0.33312937  0.98968227  0.39197103     0.05800
C1022       C  0.34191916  0.01203417  0.39773464    -0.08800
C1023       C  0.35577445  0.03042819  0.38436536     0.00800
C1024       C  0.36104272  0.02657563  0.36463145     0.00700
C1025       C  0.35375975  0.00437499  0.35967112    -0.12400
C1026       C  0.33994118  0.98602946  0.37311709     0.01100
C1027       C  0.36390784  0.05289866  0.39129656     0.40400
C1028       C  0.33186046  0.96344530  0.36668630     0.37000
C1029       C  0.28849911  0.98102428  0.39800545     0.36800
C1030       C  0.30898614  0.92465501  0.43889048     0.37500
N1031       N  0.37040988  0.07086432  0.39695260    -0.43300
N1032       N  0.32544110  0.94534895  0.36154127    -0.43700
N1033       N  0.31323420  0.91350445  0.44766707    -0.41100
N1034       N  0.28430152  0.99267083  0.39017933    -0.42500
H1035       H  0.26162266  0.94678677  0.42344516     0.13700
H1036       H  0.33604797  0.95868407  0.41281208     0.10200
H1037       H  0.33720474  0.01499901  0.41247613     0.11200
H1038       H  0.35787430  0.00107497  0.34479232     0.17000
C1039       C  0.25846938  0.01908597  0.22618714    -0.01200
C1040       C  0.27889779  0.02070526  0.22758346     0.07400
C1041       C  0.28303529  0.00878271  0.21379795    -0.07100
C1042       C  0.26695163  0.99485788  0.19896081     0.04900
C1043       C  0.24655459  0.99329969  0.19728830    -0.14400
C1044       C  0.24248611  0.00553898  0.21088518    -0.07700
C1045       C  0.29497017  0.03184330  0.24486270     0.05800
C1046       C  0.29428015  0.01769957  0.26018237    -0.08800
C1047       C  0.31162497  0.02618764  0.27478233     0.00800
C1048       C  0.33000115  0.04949779  0.27440092     0.00700
C1049       C  0.33007549  0.06390537  0.25955764    -0.12400
C1050       C  0.31282678  0.05520399  0.24467923     0.01100
C1051       C  0.31014286  0.01037982  0.28965830     0.40400
C1052       C  0.31432905  0.07025506  0.22889715     0.37000
C1053       C  0.25331320  0.03046715  0.24068629     0.36800
C1054       C  0.27126911  0.98142809  0.18634916     0.37500
N1055       N  0.30886994  0.99755974  0.30144919    -0.43300
N1056       N  0.31560631  0.08238656  0.21628344    -0.43700
N1057       N  0.27480805  0.97056272  0.17649709    -0.41100
N1058       N  0.24917684  0.03953810  0.25237779    -0.42500
H1059       H  0.22674412  0.00424061  0.20968344     0.13700
H1060       H  0.29853620  0.00963090  0.21524924     0.10200
H1061       H  0.28057040  0.99966137  0.26013065     0.11200
H1062       H  0.34409560  0.08181624  0.25904045     0.17000
C1063       C  0.11065089  0.87724837  0.21992078    -0.01200
C1064       C  0.10877765  0.85677323  0.22213757     0.07400
C1065       C  0.12129930  0.85249598  0.20919923    -0.07100
C1066       C  0.13597661  0.86853140  0.19440965     0.04900
C1067       C  0.13821767  0.88923886  0.19239383    -0.14400
C1068       C  0.12536121  0.89335308  0.20509610    -0.07700
C1069       C  0.09506443  0.84019750  0.23874482     0.05800
C1070       C  0.07255392  0.82182839  0.23475918    -0.08800
C1071       C  0.05966271  0.80497419  0.24973437     0.00800
C1072       C  0.06934351  0.80653651  0.26928482     0.00700
C1073       C  0.09186735  0.82533900  0.27320977    -0.12400
C1074       C  0.10473873  0.84194952  0.25812463     0.01100
C1075       C  0.03704226  0.78585814  0.24411496     0.40400
C1076       C  0.12814244  0.86027968  0.26255210     0.37000
C1077       C  0.09789859  0.88212934  0.23292719     0.36800
C1078       C  0.14914198  0.86373018  0.18190793     0.37500
N1079       N  0.01897084  0.77051714  0.23947429    -0.43300
N1080       N  0.14694396  0.87495038  0.26592909    -0.43700
N1081       N  0.15971258  0.85990402  0.17189421    -0.41100
N1082       N  0.08761425  0.88594768  0.24338503    -0.42500
H1083       H  0.12705092  0.90924515  0.20356889     0.13700
H1084       H  0.11997487  0.83680757  0.21100483     0.10200
H1085       H  0.06524290  0.82038384  0.21971138     0.11200
H1086       H  0.09973673  0.82683316  0.28795552     0.17000
C1087       C  0.02636247  0.64841561  0.21895347    -0.01200
C1088       C  0.01177665  0.64098432  0.23607362     0.07400
C1089       C  0.99562950  0.61758908  0.23945985    -0.07100
C1090       C  0.99384226  0.60161996  0.22593630     0.04900
C1091       C  0.00814797  0.60911065  0.20854998    -0.14400
C1092       C  0.02438594  0.63251734  0.20532953    -0.07700
C1093       C  0.01371091  0.65753200  0.25081974     0.05800
C1094       C  0.00056369  0.66592573  0.24774882    -0.08800
C1095       C  0.00330820  0.68296311  0.26042108     0.00800
C1096       C  0.01965622  0.69197922  0.27654930     0.00700
C1097       C  0.03228054  0.68293552  0.27981408    -0.12400
C1098       C  0.02943672  0.66592039  0.26716197     0.01100
C1099       C  0.98909910  0.69071671  0.25636505     0.40400
C1100       C  0.04311268  0.65754231  0.27103651     0.37000
C1101       C  0.04367300  0.67227891  0.21521773     0.36800
C1102       C  0.97739524  0.57769198  0.23023047     0.37500
N1103       N  0.97761235  0.69679748  0.25303273    -0.43300
N1104       N  0.05407114  0.65082910  0.27420324    -0.43700
N1105       N  0.96438065  0.55849714  0.23374542    -0.41100
N1106       N  0.05763879  0.69139195  0.21224262    -0.42500
H1107       H  0.03562522  0.63833795  0.19215529     0.13700
H1108       H  0.98459282  0.61183403  0.25277192     0.10200
H1109       H  0.98838164  0.65938703  0.23518478     0.11200
H1110       H  0.04480913  0.68946247  0.29207434     0.17000
C1111       C  0.02762328  0.48901967  0.03842634    -0.01200
C1112       C  0.01730343  0.47695680  0.05681393     0.07400
C1113       C  0.01156608  0.45488044  0.05928941    -0.07100
C1114       C  0.01687321  0.44509852  0.04402726     0.04900
C1115       C  0.02823908  0.45765817  0.02599709    -0.14400
C1116       C  0.03315394  0.47940952  0.02330551    -0.07700
C1117       C  0.01449249  0.48801158  0.07433888     0.05800
C1118       C  0.99333352  0.48420084  0.07774459    -0.08800
C1119       C  0.99069314  0.49546337  0.09360441     0.00800
C1120       C  0.00930113  0.51035495  0.10655451     0.00700
C1121       C  0.03030880  0.51376454  0.10338037    -0.12400
C1122       C  0.03309180  0.50294344  0.08726115     0.01100
C1123       C  0.96899546  0.49203250  0.09604707     0.40400
C1124       C  0.05536456  0.50798765  0.08375307     0.37000
C1125       C  0.03313083  0.51148275  0.03493398     0.36800
C1126       C  0.01196063  0.42292932  0.04794232     0.37500
N1127       N  0.95168657  0.48946678  0.09800126    -0.43300
N1128       N  0.07322540  0.51213956  0.08073790    -0.43700
N1129       N  0.00805182  0.40518818  0.05118527    -0.41100
N1130       N  0.03750474  0.52945641  0.03201871    -0.42500
H1131       H  0.04168322  0.48909825  0.00944274     0.13700
H1132       H  0.00373890  0.44565291  0.07350579     0.10200
H1133       H  0.97908259  0.47288750  0.06769647     0.11200
H1134       H  0.04473618  0.52552157  0.11308542     0.17000
C1135       C  0.09959455  0.80907810  0.05302120    -0.01200
C1136       C  0.12079561  0.82918836  0.04788494     0.07400
C1137       C  0.13028259  0.83131205  0.02853914    -0.07100
C1138       C  0.11871457  0.81378190  0.01411843     0.04900
C1139       C  0.09724895  0.79355933  0.01916818    -0.14400
C1140       C  0.08811770  0.79153074  0.03878217    -0.07700
C1141       C  0.13275951  0.84851658  0.06225798     0.05800
C1142       C  0.14293944  0.84681839  0.07995518    -0.08800
C1143       C  0.15374842  0.86450688  0.09417519     0.00800
C1144       C  0.15407845  0.88404047  0.09088089     0.00700
C1145       C  0.14403745  0.88582061  0.07313406    -0.12400
C1146       C  0.13346758  0.86823736  0.05877722     0.01100
C1147       C  0.16497252  0.86263636  0.11173897     0.40400
C1148       C  0.12319120  0.87057228  0.04070798     0.37000
C1149       C  0.08884733  0.80637382  0.07253019     0.36800
C1150       C  0.12905598  0.81746718  0.99421847     0.37500
N1151       N  0.17417358  0.86131077  0.12573607    -0.43300
N1152       N  0.11497423  0.87232845  0.02614303    -0.43700
N1153       N  0.13746292  0.82064905  0.97828510    -0.41100
N1154       N  0.08012571  0.80414855  0.08810608    -0.42500
H1155       H  0.07168706  0.77626398  0.04302148     0.13700
H1156       H  0.14660540  0.84689873  0.02460114     0.10200
H1157       H  0.14252360  0.83171007  0.08256371     0.11200
H1158       H  0.14453609  0.90097077  0.07051734     0.17000
C1159       C  0.00800736  0.66552740  0.05613972    -0.01200
C1160       C  0.01003930  0.64736755  0.05386215     0.07400
C1161       C  0.01749075  0.64468234  0.03506050    -0.07100
C1162       C  0.02399712  0.66035978  0.01893327     0.04900
C1163       C  0.02244062  0.67892707  0.02124523    -0.14400
C1164       C  0.01387113  0.68088118  0.03982998    -0.07700
C1165       C  0.00666747  0.63226933  0.07138710     0.05800
C1166       C  0.98822843  0.60916757  0.07119203    -0.08800
C1167       C  0.98562913  0.59427398  0.08686784     0.00800
C1168       C  0.00167804  0.60251822  0.10306048     0.00700
C1169       C  0.01998275  0.62562542  0.10326128    -0.12400
C1170       C  0.02266516  0.64042855  0.08758004     0.01100
C1171       C  0.96665687  0.57058259  0.08590096     0.40400
C1172       C  0.04257814  0.66370912  0.08788742     0.37000
C1173       C  0.00077859  0.66922350  0.07533760     0.36800
C1174       C  0.03291454  0.65725617  0.00053701     0.37500
N1175       N  0.95154635  0.55155261  0.08510140    -0.43300
N1176       N  0.05855717  0.68236146  0.08804633    -0.43700
N1177       N  0.04026541  0.65482939  0.98590332    -0.41100
N1178       N  0.99520179  0.67230653  0.09078989    -0.42500
H1179       H  0.01272411  0.69505661  0.04202474     0.13700
H1180       H  0.01923318  0.63082937  0.03331939     0.10200
H1181       H  0.97604448  0.60273718  0.05864339     0.11200
H1182       H  0.03256667  0.63196977  0.11547054     0.17000
C1183       C  0.07583985  0.53076579  0.87331845    -0.01200
C1184       C  0.09445708  0.53394360  0.88430706     0.07400
C1185       C  0.11655494  0.55338233  0.88036318    -0.07100
C1186       C  0.12020182  0.56971717  0.86591337     0.04900
C1187       C  0.10157530  0.56644869  0.85497977    -0.14400
C1188       C  0.07955022  0.54695879  0.85874504    -0.07700
C1189       C  0.09094106  0.51788407  0.90085503     0.05800
C1190       C  0.08248056  0.49541678  0.89588437    -0.08800
C1191       C  0.07731633  0.47943306  0.91134432     0.00800
C1192       C  0.08050529  0.48586455  0.93219292     0.00700
C1193       C  0.08991534  0.50859485  0.93708880    -0.12400
C1194       C  0.09507224  0.52457140  0.92161315     0.01100
C1195       C  0.06942297  0.45671936  0.90546720     0.40400
C1196       C  0.10366732  0.54752023  0.92733929     0.37000
C1197       C  0.05272273  0.51143371  0.87718176     0.36800
C1198       C  0.14303933  0.58978896  0.86268785     0.37500
N1199       N  0.06328225  0.43853698  0.90090470    -0.43300
N1200       N  0.11061509  0.56600249  0.93161866    -0.43700
N1201       N  0.16132240  0.60596981  0.86018030    -0.41100
N1202       N  0.03417033  0.49597282  0.88023906    -0.42500
H1203       H  0.06522116  0.54452027  0.85033112     0.13700
H1204       H  0.13089220  0.55593357  0.88884053     0.10200
H1205       H  0.07970732  0.49033808  0.87990547     0.11200
H1206       H  0.09242855  0.51367948  0.95305349     0.17000
C1207       C  0.12243848  0.69566130  0.87935490    -0.01200
C1208       C  0.10068642  0.68958143  0.88502619     0.07400
C1209       C  0.08126300  0.67133208  0.87521953    -0.07100
C1210       C  0.08318773  0.65903828  0.86003668     0.04900
C1211       C  0.10487966  0.66508923  0.85429305    -0.14400
C1212       C  0.12439422  0.68338067  0.86402022    -0.07700
C1213       C  0.09743185  0.70196630  0.90094575     0.05800
C1214       C  0.08929411  0.71472550  0.89483833    -0.08800
C1215       C  0.08301372  0.72424647  0.90938742     0.00800
C1216       C  0.08485800  0.72104358  0.93059431     0.00700
C1217       C  0.09406229  0.70915519  0.93665861    -0.12400
C1218       C  0.10011647  0.69943394  0.92204525     0.01100
C1219       C  0.07466019  0.73711592  0.90205504     0.40400
C1220       C  0.10767521  0.68576315  0.92903938     0.37000
C1221       C  0.14286896  0.71455551  0.88886197     0.36800
C1222       C  0.06268159  0.64000847  0.85071224     0.37500
N1223       N  0.06798017  0.74742374  0.89611799    -0.43300
N1224       N  0.11368153  0.67475136  0.93460658    -0.43700
N1225       N  0.04632365  0.62469718  0.84321372    -0.41100
N1226       N  0.15922730  0.72968826  0.89653178    -0.42500
H1227       H  0.14107698  0.68800192  0.85962956     0.13700
H1228       H  0.06451915  0.66657868  0.87959270     0.10200
H1229       H  0.08727584  0.71672518  0.87859924     0.11200
H1230       H  0.09540591  0.70639933  0.95285899     0.17000
C1231       C  0.67057944  0.98944834  0.39499884    -0.01200
C1232       C  0.65952094  0.96644884  0.38956571     0.07400
C1233       C  0.65334238  0.96004620  0.36899848    -0.07100
C1234       C  0.65915821  0.97636567  0.35369821     0.04900
C1235       C  0.67114405  0.99950308  0.35900782    -0.14400
C1236       C  0.67637499  0.00576021  0.37970819    -0.07700
C1237       C  0.65750160  0.94961483  0.40441009     0.05800
C1238       C  0.64196352  0.94152029  0.42072291    -0.08800
C1239       C  0.64105464  0.92679992  0.43564203     0.00800
C1240       C  0.65623942  0.92041955  0.43451416     0.00700
C1241       C  0.67117325  0.92796362  0.41777157    -0.12400
C1242       C  0.67185598  0.94234709  0.40277493     0.01100
C1243       C  0.62470057  0.91873414  0.45208004     0.40400
C1244       C  0.68819244  0.95030249  0.38631376     0.37000
C1245       C  0.67740551  0.99692035  0.41592348     0.36800
C1246       C  0.65477027  0.96926244  0.33252136     0.37500
N1247       N  0.61162392  0.91233806  0.46528094    -0.43300
N1248       N  0.70122868  0.95672385  0.37307651    -0.43700
N1249       N  0.65150205  0.96360544  0.31553686    -0.41100
N1250       N  0.68289966  0.00300293  0.43266753    -0.42500
H1251       H  0.68565016  0.02355034  0.38384949     0.13700
H1252       H  0.64514562  0.94242422  0.36475579     0.10200
H1253       H  0.63076561  0.94692795  0.42190703     0.11200
H1254       H  0.68289693  0.92317403  0.41679075     0.17000
C1255       C  0.66059481  0.80044080  0.41666590    -0.01200
C1256       C  0.67760232  0.81245890  0.40159958     0.07400
C1257       C  0.69118593  0.83630970  0.40129960    -0.07100
C1258       C  0.68869373  0.84829847  0.41636548     0.04900
C1259       C  0.67235294  0.83625726  0.43197919    -0.14400
C1260       C  0.65810903  0.81242763  0.43177347    -0.07700
C1261       C  0.68337719  0.80073724  0.38745137     0.05800
C1262       C  0.66944049  0.78921977  0.37041353    -0.08800
C1263       C  0.67565643  0.77949537  0.35596379     0.00800
C1264       C  0.69619911  0.78129930  0.35865304     0.00700
C1265       C  0.70950888  0.79211191  0.37627860    -0.12400
C1266       C  0.70336309  0.80187807  0.39051690     0.01100
C1267       C  0.66099176  0.76851013  0.33836794     0.40400
C1268       C  0.71806385  0.81335737  0.40802489     0.37000
C1269       C  0.64620969  0.77590700  0.41744246     0.36800
C1270       C  0.70364346  0.87286491  0.41600158     0.37500
N1271       N  0.64917527  0.75973717  0.32428723    -0.43300
N1272       N  0.72987775  0.82264727  0.42199668    -0.43700
N1273       N  0.71558027  0.89254537  0.41567463    -0.41100
N1274       N  0.63457150  0.75623241  0.41813205    -0.42500
H1275       H  0.64548006  0.80324586  0.44376162     0.13700
H1276       H  0.70430278  0.84552027  0.38969383     0.10200
H1277       H  0.65400706  0.78834285  0.36816361     0.11200
H1278       H  0.72513195  0.79342141  0.37882533     0.17000
C1279       C  0.73985576  0.98102215  0.22444098    -0.01200
C1280       C  0.75078703  0.00472497  0.22340524     0.07400
C1281       C  0.76790438  0.01769172  0.20875054    -0.07100
C1282       C  0.77333248  0.00710060  0.19448774     0.04900
C1283       C  0.76112689  0.98313281  0.19456146    -0.14400
C1284       C  0.74482817  0.97040326  0.20991357    -0.07700
C1285       C  0.74395518  0.01585504  0.23734475     0.05800
C1286       C  0.75807411  0.02854081  0.25393317    -0.08800
C1287       C  0.75072090  0.03669957  0.26893570     0.00800
C1288       C  0.72865005  0.03179640  0.26755789     0.00700
C1289       C  0.71498896  0.01987497  0.25040122    -0.12400
C1290       C  0.72258508  0.01222211  0.23522766     0.01100
C1291       C  0.76587038  0.04926978  0.28587854     0.40400
C1292       C  0.70828682  0.00086632  0.21749075     0.37000
C1293       C  0.72361367  0.96734514  0.24044492     0.36800
C1294       C  0.79129968  0.02105963  0.17985469     0.37500
N1295       N  0.77805540  0.05941979  0.29942162    -0.43300
N1296       N  0.69692224  0.99198169  0.20318764    -0.43700
N1297       N  0.80577355  0.03229935  0.16819252    -0.41100
N1298       N  0.71078650  0.95654014  0.25343613    -0.42500
H1299       H  0.73565330  0.95204347  0.21028844     0.13700
H1300       H  0.77672244  0.03600220  0.20825183     0.10200
H1301       H  0.77459363  0.03147658  0.25547442     0.11200
H1302       H  0.69832076  0.01658598  0.24875267     0.17000
C1303       C  0.76876993  0.85410338  0.26218067    -0.01200
C1304       C  0.77053322  0.85060240  0.24124804     0.07400
C1305       C  0.76831770  0.83082164  0.23529389    -0.07100
C1306       C  0.76252283  0.81369805  0.24970235     0.04900
C1307       C  0.75901225  0.81642547  0.27047207    -0.14400
C1308       C  0.76317046  0.83711330  0.27662093    -0.07700
C1309       C  0.77133461  0.86575787  0.22522085     0.05800
C1310       C  0.79112949  0.87988259  0.21348971    -0.08800
C1311       C  0.79195533  0.89432048  0.19832344     0.00800
C1312       C  0.77289237  0.89488189  0.19511514     0.00700
C1313       C  0.75311483  0.88061176  0.20671195    -0.12400
C1314       C  0.75206890  0.86584252  0.22144057     0.01100
C1315       C  0.81220688  0.90806057  0.18595095     0.40400
C1316       C  0.73071993  0.85014806  0.23186134     0.37000
C1317       C  0.77142414  0.87450962  0.26893526     0.36800
C1318       C  0.75986341  0.79336695  0.24270897     0.37500
N1319       N  0.82834618  0.91901443  0.17589870    -0.43300
N1320       N  0.71360913  0.83740641  0.24012926    -0.43700
N1321       N  0.75771140  0.77703296  0.23720559    -0.41100
N1322       N  0.77346190  0.89085864  0.27419445    -0.42500
H1323       H  0.76071775  0.83951238  0.29252574     0.13700
H1324       H  0.76989506  0.82823245  0.21920287     0.10200
H1325       H  0.80580283  0.87951664  0.21611769     0.11200
H1326       H  0.73821821  0.88052556  0.20374562     0.17000
C1327       C  0.37496391  0.34318493  0.90802710    -0.01200
C1328       C  0.36392513  0.32017774  0.91364681     0.07400
C1329       C  0.35961734  0.31390799  0.93445997    -0.07100
C1330       C  0.36552195  0.33009077  0.94964299     0.04900
C1331       C  0.37602482  0.35315620  0.94400996    -0.14400
C1332       C  0.38094971  0.35938263  0.92312959    -0.07700
C1333       C  0.35650290  0.30239711  0.89797406     0.05800
C1334       C  0.37307838  0.30257547  0.88664637    -0.08800
C1335       C  0.36671659  0.28610309  0.87171669     0.00800
C1336       C  0.34343920  0.26928139  0.86781459     0.00700
C1337       C  0.32682913  0.26911141  0.87901640    -0.12400
C1338       C  0.33318889  0.28544477  0.89413615     0.01100
C1339       C  0.38427432  0.28656081  0.86066715     0.40400
C1340       C  0.31555645  0.28464239  0.90538769     0.37000
C1341       C  0.37947440  0.35044705  0.88677497     0.36800
C1342       C  0.36037997  0.32236287  0.97072879     0.37500
N1343       N  0.39824759  0.28677887  0.85179178    -0.43300
N1344       N  0.30145508  0.28398504  0.91448505    -0.43700
N1345       N  0.35621586  0.31606739  0.98760843    -0.41100
N1346       N  0.38307255  0.35628931  0.86975614    -0.42500
H1347       H  0.38895795  0.37692138  0.91840741     0.13700
H1348       H  0.35137776  0.29622251  0.93881245     0.10200
H1349       H  0.39100246  0.31550783  0.88961598     0.11200
H1350       H  0.30893125  0.25606579  0.87607350     0.17000
C1351       C  0.76673749  0.86228491  0.07107525    -0.01200
C1352       C  0.74482659  0.84772827  0.06240362     0.07400
C1353       C  0.72784843  0.85082301  0.06703609    -0.07100
C1354       C  0.73224901  0.86786856  0.08050649     0.04900
C1355       C  0.75410043  0.88239830  0.08933943    -0.14400
C1356       C  0.77127153  0.87959286  0.08438930    -0.07700
C1357       C  0.73865352  0.82830165  0.04932547     0.05800
C1358       C  0.73494730  0.80883544  0.05863581    -0.08800
C1359       C  0.72714370  0.78930984  0.04715674     0.00800
C1360       C  0.72250317  0.78898173  0.02589455     0.00700
C1361       C  0.72662841  0.80875403  0.01661550    -0.12400
C1362       C  0.73487430  0.82837839  0.02809410     0.01100
C1363       C  0.72381769  0.76991055  0.05778355     0.40400
C1364       C  0.73996069  0.84862930  0.01773812     0.37000
C1365       C  0.78466109  0.85963875  0.06655681     0.36800
C1366       C  0.71381788  0.86949504  0.08578210     0.37500
N1367       N  0.72130363  0.75443716  0.06630495    -0.43300
N1368       N  0.74430844  0.86497117  0.00945241    -0.43700
N1369       N  0.69904887  0.87077866  0.09007656    -0.41100
N1370       N  0.79897080  0.85744581  0.06288345    -0.42500
H1371       H  0.78803999  0.89064122  0.09126835     0.13700
H1372       H  0.71091966  0.83944651  0.06053456     0.10200
H1373       H  0.73787423  0.80882629  0.07501542     0.11200
H1374       H  0.72371851  0.80903745  0.00027601     0.17000
C1375       C  0.44954123  0.51939712  0.72451016    -0.01200
C1376       C  0.44692963  0.49853815  0.72637694     0.07400
C1377       C  0.45719966  0.49483494  0.74273304    -0.07100
C1378       C  0.46968456  0.51156405  0.75752185     0.04900
C1379       C  0.47194568  0.53225983  0.75586620    -0.14400
C1380       C  0.46211825  0.53617249  0.73925549    -0.07700
C1381       C  0.43250997  0.47985027  0.71203455     0.05800
C1382       C  0.44282476  0.47500248  0.69699935    -0.08800
C1383       C  0.42957635  0.45708432  0.68332587     0.00800
C1384       C  0.40548096  0.44371419  0.68473858     0.00700
C1385       C  0.39536020  0.44877386  0.69998427    -0.12400
C1386       C  0.40864764  0.46659124  0.71361586     0.01100
C1387       C  0.44129799  0.45302546  0.66814462     0.40400
C1388       C  0.39750898  0.47070263  0.72941338     0.37000
C1389       C  0.43933342  0.52379647  0.70770872     0.36800
C1390       C  0.48006482  0.50726526  0.77423503     0.37500
N1391       N  0.45081369  0.44985752  0.65603626    -0.43300
N1392       N  0.38868831  0.47404865  0.74212339    -0.43700
N1393       N  0.48842844  0.50391771  0.78766061    -0.41100
N1394       N  0.43110355  0.52727514  0.69425457    -0.42500
H1395       H  0.46411508  0.55223817  0.73797362     0.13700
H1396       H  0.45511073  0.47872784  0.74409405     0.10200
H1397       H  0.46127723  0.48527191  0.69598083     0.11200
H1398       H  0.37696487  0.43864312  0.70148399     0.17000
C1399       C  0.59866797  0.65449720  0.88248220    -0.01200
C1400       C  0.59794736  0.67155015  0.89196750     0.07400
C1401       C  0.58151474  0.67505453  0.88556243    -0.07100
C1402       C  0.56595778  0.66180167  0.86985818     0.04900
C1403       C  0.56668013  0.64468712  0.86056614    -0.14400
C1404       C  0.58312564  0.64128279  0.86693180    -0.07700
C1405       C  0.61480337  0.68609408  0.90812743     0.05800
C1406       C  0.63780174  0.70109441  0.90257196    -0.08800
C1407       C  0.65486710  0.71234392  0.91754424     0.00800
C1408       C  0.64897743  0.70876200  0.93857721     0.00700
C1409       C  0.62582579  0.69503235  0.94406140    -0.12400
C1410       C  0.60875479  0.68355960  0.92904773     0.01100
C1411       C  0.67826497  0.72743456  0.91089277     0.40400
C1412       C  0.58536154  0.66815633  0.93558273     0.37000
C1413       C  0.61504835  0.65004865  0.88867336     0.36800
C1414       C  0.54966570  0.66619387  0.86323401     0.37500
N1415       N  0.69700162  0.73959058  0.90554015    -0.43300
N1416       N  0.56666113  0.65579958  0.94096627    -0.43700
N1417       N  0.53668283  0.66976007  0.85774508    -0.41100
N1418       N  0.62822808  0.64655622  0.89363195    -0.42500
H1419       H  0.58363629  0.62807232  0.85981469     0.13700
H1420       H  0.58103568  0.68828118  0.89266492     0.10200
H1421       H  0.64247789  0.70332442  0.88647353     0.11200
H1422       H  0.62111016  0.69219033  0.96016382     0.17000
C1423       C  0.40369482  0.47480197  0.91072588    -0.01200
C1424       C  0.42657471  0.49383044  0.91089698     0.07400
C1425       C  0.44024520  0.49806590  0.92810574    -0.07100
C1426       C  0.43185531  0.48273859  0.94461677     0.04900
C1427       C  0.40930613  0.46267464  0.94391495    -0.14400
C1428       C  0.39514523  0.45947139  0.92727712    -0.07700
C1429       C  0.43741496  0.50817963  0.89246944     0.05800
C1430       C  0.43893912  0.52834820  0.89031167    -0.08800
C1431       C  0.45096303  0.54321398  0.87387336     0.00800
C1432       C  0.46194835  0.53804686  0.85965643     0.00700
C1433       C  0.45964285  0.51741900  0.86140799    -0.12400
C1434       C  0.44735450  0.50241006  0.87764280     0.01100
C1435       C  0.45204420  0.56375081  0.87186697     0.40400
C1436       C  0.44556671  0.48143760  0.87913303     0.37000
C1437       C  0.38918100  0.47010054  0.89321221     0.36800
C1438       C  0.44701508  0.48781984  0.96172063     0.37500
N1439       N  0.45291303  0.58020636  0.87007039    -0.43300
N1440       N  0.44399763  0.46457019  0.88036490    -0.43700
N1441       N  0.45915555  0.49183389  0.97540551    -0.41100
N1442       N  0.37766518  0.46640019  0.87909174    -0.42500
H1443       H  0.37778073  0.44430280  0.92657666     0.13700
H1444       H  0.45783675  0.51290482  0.92821745     0.10200
H1445       H  0.43105261  0.53260319  0.90163331     0.11200
H1446       H  0.46799306  0.51338494  0.85039483     0.17000
C1447       C  0.62240320  0.63955289  0.22720723    -0.01200
C1448       C  0.63441459  0.63873439  0.24400954     0.07400
C1449       C  0.63348103  0.61900344  0.24767448    -0.07100
C1450       C  0.62137651  0.60046229  0.23443450     0.04900
C1451       C  0.61002498  0.60162279  0.21728650    -0.14400
C1452       C  0.61034381  0.62102716  0.21396958    -0.07700
C1453       C  0.64934769  0.65888189  0.25701083     0.05800
C1454       C  0.63974216  0.66718883  0.26913531    -0.08800
C1455       C  0.65356978  0.68690025  0.28080778     0.00800
C1456       C  0.67755740  0.69843954  0.28064026     0.00700
C1457       C  0.68697462  0.68979759  0.26858213    -0.12400
C1458       C  0.67316749  0.67035526  0.25674231     0.01100
C1459       C  0.64255651  0.69480597  0.29253990     0.40400
C1460       C  0.68390909  0.66302727  0.24378595     0.37000
C1461       C  0.62294948  0.65952428  0.22282103     0.36800
C1462       C  0.62129310  0.58068605  0.23834413     0.37500
N1463       N  0.63363950  0.70111777  0.30183548    -0.43300
N1464       N  0.69249010  0.65717768  0.23335321    -0.43700
N1465       N  0.62119373  0.56480611  0.24143299    -0.41100
N1466       N  0.62338568  0.67554307  0.21939463    -0.42500
H1467       H  0.60142646  0.62177628  0.20082336     0.13700
H1468       H  0.64265129  0.61833420  0.26063973     0.10200
H1469       H  0.62138134  0.65835988  0.26926193     0.11200
H1470       H  0.70529566  0.69846609  0.26804964     0.17000
C1471       C  0.51096374  0.46584463  0.08200360    -0.01200
C1472       C  0.48906309  0.46105180  0.08024722     0.07400
C1473       C  0.48155163  0.46915680  0.09508596    -0.07100
C1474       C  0.49571350  0.48240212  0.11135067     0.04900
C1475       C  0.51756632  0.48705598  0.11335530    -0.14400
C1476       C  0.52493325  0.47852124  0.09869680    -0.07700
C1477       C  0.47430023  0.44958118  0.06214502     0.05800
C1478       C  0.45614085  0.42651417  0.06357672    -0.08800
C1479       C  0.43947529  0.41608521  0.04811026     0.00800
C1480       C  0.44105346  0.42891020  0.03070164     0.00700
C1481       C  0.45995825  0.45182056  0.02904589    -0.12400
C1482       C  0.47631188  0.46222485  0.04463812     0.01100
C1483       C  0.42038301  0.39271425  0.05125675     0.40400
C1484       C  0.49420480  0.48628232  0.04299950     0.37000
C1485       C  0.51972705  0.45876873  0.06645495     0.36800
C1486       C  0.48806491  0.49235085  0.12490271     0.37500
N1487       N  0.40504763  0.37401562  0.05393428    -0.43300
N1488       N  0.50844405  0.50558553  0.04181177    -0.43700
N1489       N  0.48191274  0.50046921  0.13555524    -0.41100
N1490       N  0.52685568  0.45327164  0.05391808    -0.42500
H1491       H  0.54191370  0.48249409  0.09993106     0.13700
H1492       H  0.46492171  0.46595966  0.09340206     0.10200
H1493       H  0.45444616  0.41692381  0.07726456     0.11200
H1494       H  0.46155788  0.46202507  0.01589791     0.17000
C1495       C  0.64115671  0.60339354  0.08128684    -0.01200
C1496       C  0.64360961  0.62422933  0.07967205     0.07400
C1497       C  0.63505362  0.63045457  0.09536256    -0.07100
C1498       C  0.62342547  0.61599531  0.11208660     0.04900
C1499       C  0.62071494  0.59503370  0.11365942    -0.14400
C1500       C  0.63005026  0.58914524  0.09837946    -0.07700
C1501       C  0.65291676  0.63903175  0.06108252     0.05800
C1502       C  0.63834377  0.64234914  0.04987737    -0.08800
C1503       C  0.64661104  0.65846392  0.03401008     0.00800
C1504       C  0.67013998  0.67201717  0.02923335     0.00700
C1505       C  0.68449153  0.66768994  0.03965433    -0.12400
C1506       C  0.67607717  0.65133950  0.05546537     0.01100
C1507       C  0.63041539  0.66052202  0.02292264     0.40400
C1508       C  0.69168075  0.64816979  0.06619869     0.37000
C1509       C  0.64840963  0.59555864  0.06501180     0.36800
C1510       C  0.61315313  0.62238546  0.12671264     0.37500
N1511       N  0.61737668  0.66205309  0.01401003    -0.43300
N1512       N  0.70414645  0.64546268  0.07465769    -0.43700
N1513       N  0.60488871  0.62745684  0.13843938    -0.41100
N1514       N  0.65414647  0.58920521  0.05195615    -0.42500
H1515       H  0.62761878  0.57285557  0.09932817     0.13700
H1516       H  0.63667202  0.64633623  0.09407844     0.10200
H1517       H  0.62041680  0.63257643  0.05389250     0.11200
H1518       H  0.70250812  0.67768028  0.03600369     0.17000
C1519       C  0.05728228  0.49748129  0.69228643    -0.01200
C1520       C  0.07443410  0.50639580  0.70745772     0.07400
C1521       C  0.08671514  0.49699730  0.71004866    -0.07100
C1522       C  0.08204965  0.47881678  0.69791345     0.04900
C1523       C  0.06526473  0.47017774  0.68220769    -0.14400
C1524       C  0.05304266  0.47976950  0.67966766    -0.07700
C1525       C  0.07868189  0.52437846  0.72178260     0.05800
C1526       C  0.06267267  0.51857113  0.73724164    -0.08800
C1527       C  0.06619637  0.53476800  0.75143230     0.00800
C1528       C  0.08603267  0.55728223  0.75023697     0.00700
C1529       C  0.10195255  0.56317173  0.73466435    -0.12400
C1530       C  0.09848435  0.54691344  0.72052729     0.01100
C1531       C  0.04934824  0.52789687  0.76719441     0.40400
C1532       C  0.11536555  0.55378400  0.70480730     0.37000
C1533       C  0.04360450  0.50605662  0.68966864     0.36800
C1534       C  0.09374692  0.46851240  0.70291673     0.37500
N1535       N  0.03587075  0.52234599  0.77987017    -0.43300
N1536       N  0.12898313  0.55944496  0.69224558    -0.43700
N1537       N  0.10286529  0.46002521  0.70707774    -0.41100
N1538       N  0.03257799  0.51288097  0.68778312    -0.42500
H1539       H  0.03990063  0.47324131  0.66796961     0.13700
H1540       H  0.09946247  0.50339047  0.72211865     0.10200
H1541       H  0.04748085  0.50125218  0.73831874     0.11200
H1542       H  0.11722961  0.58044864  0.73372798     0.17000
C1543       C  0.71154961  0.99388466  0.59804678    -0.01200
C1544       C  0.69774690  0.98741314  0.58037412     0.07400
C1545       C  0.68720408  0.99820578  0.57561960    -0.07100
C1546       C  0.69024673  0.01539544  0.58809130     0.04900
C1547       C  0.70408622  0.02203423  0.60597512    -0.14400
C1548       C  0.71460681  0.01105375  0.61067427    -0.07700
C1549       C  0.69343436  0.96900911  0.56677723     0.05800
C1550       C  0.67128491  0.94887897  0.56581610    -0.08800
C1551       C  0.66603965  0.93155032  0.55229272     0.00800
C1552       C  0.68311780  0.93441380  0.53938139     0.00700
C1553       C  0.70535922  0.95431616  0.54060249    -0.12400
C1554       C  0.71062853  0.97164800  0.55412308     0.01100
C1555       C  0.64315391  0.91094310  0.55196337     0.40400
C1556       C  0.73354915  0.99220468  0.55425695     0.37000
C1557       C  0.72236767  0.98283864  0.60365792     0.36800
C1558       C  0.67877591  0.02566483  0.58199091     0.37500
N1559       N  0.62491928  0.89426469  0.55184257    -0.43300
N1560       N  0.75197398  0.00860540  0.55437053    -0.43700
N1561       N  0.66957147  0.03385536  0.57702510    -0.41100
N1562       N  0.73104634  0.97395552  0.60799993    -0.42500
H1563       H  0.72526745  0.01585775  0.62423939     0.13700
H1564       H  0.67654491  0.99315954  0.56200690     0.10200
H1565       H  0.65806515  0.94680280  0.57558170     0.11200
H1566       H  0.71845622  0.95648683  0.53058564     0.17000
C1567       C  0.78032372  0.14814865  0.35671012    -0.01200
C1568       C  0.77102771  0.15415202  0.37190874     0.07400
C1569       C  0.74739120  0.14142478  0.37437805    -0.07100
C1570       C  0.73284818  0.12219498  0.36239731     0.04900
C1571       C  0.74211235  0.11555934  0.34746697    -0.14400
C1572       C  0.76588308  0.12905653  0.34457417    -0.07700
C1573       C  0.78574006  0.17212690  0.38685882     0.05800
C1574       C  0.79184214  0.19420751  0.38343873    -0.08800
C1575       C  0.80563606  0.21143087  0.39758421     0.00800
C1576       C  0.81317446  0.20641282  0.41547698     0.00700
C1577       C  0.80714525  0.18432918  0.41877289    -0.12400
C1578       C  0.79355489  0.16720239  0.40457708     0.01100
C1579       C  0.81194328  0.23411224  0.39352983     0.40400
C1580       C  0.78779620  0.14467903  0.40840722     0.37000
C1581       C  0.80467099  0.16091425  0.35385064     0.36800
C1582       C  0.70870853  0.10925268  0.36654300     0.37500
N1583       N  0.81729680  0.25241013  0.39036294    -0.43300
N1584       N  0.78317003  0.12660922  0.41133888    -0.43700
N1585       N  0.68939481  0.09891878  0.37000579    -0.41100
N1586       N  0.82419648  0.17116282  0.35165695    -0.42500
H1587       H  0.77333089  0.12441412  0.33314533     0.13700
H1588       H  0.74035878  0.14606952  0.38625663     0.10200
H1589       H  0.78587698  0.19794640  0.36972383     0.11200
H1590       H  0.81310370  0.18053509  0.43246391     0.17000
C1591       C  0.78552497  0.17416264  0.53552728    -0.01200
C1592       C  0.77527455  0.17992882  0.55003442     0.07400
C1593       C  0.77966747  0.20157761  0.54920188    -0.07100
C1594       C  0.79426100  0.21752148  0.53424266     0.04900
C1595       C  0.80457112  0.21175333  0.51979506    -0.14400
C1596       C  0.79987434  0.18997912  0.52047452    -0.07700
C1597       C  0.76229429  0.16456517  0.56757533     0.05800
C1598       C  0.77287529  0.17021337  0.58687175    -0.08800
C1599       C  0.76326449  0.15475679  0.60330402     0.00800
C1600       C  0.74226159  0.13321555  0.60063196     0.00700
C1601       C  0.73098292  0.12827295  0.58156673    -0.12400
C1602       C  0.74092909  0.14359277  0.56503052     0.01100
C1603       C  0.77594863  0.16130341  0.62233415     0.40400
C1604       C  0.72936887  0.13702365  0.54541452     0.37000
C1605       C  0.78267995  0.15264948  0.53659681     0.36800
C1606       C  0.79879132  0.23979689  0.53423563     0.37500
N1607       N  0.78633701  0.16664888  0.63746573    -0.43300
N1608       N  0.72008558  0.13156636  0.52970553    -0.43700
N1609       N  0.80252629  0.25770140  0.53431667    -0.41100
N1610       N  0.78045942  0.13544677  0.53758877    -0.42500
H1611       H  0.80801124  0.18560454  0.50955183     0.13700
H1612       H  0.77211686  0.20617623  0.56056761     0.10200
H1613       H  0.78934633  0.18636183  0.58879689     0.11200
H1614       H  0.71486046  0.11191535  0.57919265     0.17000
C1615       C  0.92039160  0.33905972  0.55092956    -0.01200
C1616       C  0.94090251  0.34118923  0.55439162     0.07400
C1617       C  0.94713079  0.33053194  0.54110436    -0.07100
C1618       C  0.93312038  0.31756488  0.52465987     0.04900
C1619       C  0.91245884  0.31514893  0.52130971    -0.14400
C1620       C  0.90631337  0.32604625  0.53442518    -0.07700
C1621       C  0.95593105  0.35357328  0.57216695     0.05800
C1622       C  0.95765609  0.34099177  0.58764767    -0.08800
C1623       C  0.97406321  0.35186446  0.60318091     0.00800
C1624       C  0.98926590  0.37591175  0.60328632     0.00700
C1625       C  0.98659505  0.38847241  0.58838529    -0.12400
C1626       C  0.97018970  0.37751010  0.57281216     0.01100
C1627       C  0.97479432  0.33782395  0.61871014     0.40400
C1628       C  0.96915599  0.39111906  0.55703833     0.37000
C1629       C  0.91316543  0.34944963  0.56442647     0.36800
C1630       C  0.93992214  0.30631001  0.51181755     0.37500
N1631       N  0.97521249  0.32643512  0.63110681    -0.43300
N1632       N  0.96832442  0.40203448  0.54440053    -0.43700
N1633       N  0.94539825  0.29732229  0.50151153    -0.41100
N1634       N  0.90735073  0.35779309  0.57520858    -0.42500
H1635       H  0.89031851  0.32402052  0.53194318     0.13700
H1636       H  0.96288548  0.33212375  0.54379788     0.10200
H1637       H  0.94651681  0.32254586  0.58723165     0.11200
H1638       H  0.99804625  0.40689959  0.58830490     0.17000
C1639       C  0.97143183  0.29961467  0.90185318    -0.01200
C1640       C  0.96964625  0.31760513  0.90622300     0.07400
C1641       C  0.95472079  0.32012233  0.89458596    -0.07100
C1642       C  0.94168022  0.30502379  0.87870995     0.04900
C1643       C  0.94351566  0.28705625  0.87434069    -0.14400
C1644       C  0.95844532  0.28455895  0.88595957    -0.07700
C1645       C  0.98449050  0.33507408  0.92170923     0.05800
C1646       C  0.00798098  0.34939039  0.91804406    -0.08800
C1647       C  0.02251520  0.36764542  0.93099634     0.00800
C1648       C  0.01341925  0.37214292  0.94785859     0.00700
C1649       C  0.98996161  0.35711513  0.95200733    -0.12400
C1650       C  0.97553756  0.33855747  0.93920608     0.01100
C1651       C  0.04646329  0.38194828  0.92590261     0.40400
C1652       C  0.95169083  0.32316837  0.94437713     0.37000
C1653       C  0.98625345  0.29614319  0.91365384     0.36800
C1654       C  0.92693515  0.30855706  0.86683688     0.37500
N1655       N  0.06564991  0.39330586  0.92180477    -0.43300
N1656       N  0.93260560  0.31070275  0.94857609    -0.43700
N1657       N  0.91530191  0.31157289  0.85722848    -0.41100
N1658       N  0.99814769  0.29339700  0.92314147    -0.42500
H1659       H  0.95977853  0.27067749  0.88266359     0.13700
H1660       H  0.95361111  0.33418624  0.89767670     0.10200
H1661       H  0.01490004  0.34664905  0.90462369     0.11200
H1662       H  0.98281801  0.35999375  0.96514716     0.17000
C1663       C  0.96088685  0.29661828  0.73465254    -0.01200
C1664       C  0.98454566  0.30722373  0.73638130     0.07400
C1665       C  0.99315039  0.30278853  0.75370709    -0.07100
C1666       C  0.97855251  0.28841918  0.76950720     0.04900
C1667       C  0.95504869  0.27896765  0.76840804    -0.14400
C1668       C  0.94643243  0.28288900  0.75070905    -0.07700
C1669       C  0.00058660  0.32533662  0.72171061     0.05800
C1670       C  0.01141235  0.34796976  0.72774643    -0.08800
C1671       C  0.02376249  0.36581700  0.71362156     0.00800
C1672       C  0.02531101  0.36106863  0.69299604     0.00700
C1673       C  0.01598659  0.33854143  0.68732998    -0.12400
C1674       C  0.00358538  0.32064478  0.70152375     0.01100
C1675       C  0.03473628  0.38885750  0.72066175     0.40400
C1676       C  0.99367033  0.29765944  0.69493786     0.37000
C1677       C  0.95116842  0.30012805  0.71680707     0.36800
C1678       C  0.98800880  0.28350558  0.78657816     0.37500
N1679       N  0.04368640  0.40734924  0.72627486    -0.43300
N1680       N  0.98587400  0.27929255  0.68955389    -0.43700
N1681       N  0.99561147  0.27953612  0.80023324    -0.41100
N1682       N  0.94338501  0.30280323  0.70242536    -0.42500
H1683       H  0.92832887  0.27532626  0.74954800     0.13700
H1684       H  0.01133746  0.31084902  0.75500069     0.10200
H1685       H  0.00945623  0.35162797  0.74337576     0.11200
H1686       H  0.01734183  0.33478472  0.67155709     0.17000
C1687       C  0.82696718  0.13891986  0.75320403    -0.01200
C1688       C  0.82101402  0.14649474  0.73597110     0.07400
C1689       C  0.82962893  0.16956536  0.73417291    -0.07100
C1690       C  0.84361516  0.18498586  0.74946598     0.04900
C1691       C  0.84939184  0.17734352  0.76676412    -0.14400
C1692       C  0.84127728  0.15441881  0.76832823    -0.07700
C1693       C  0.80386994  0.13047947  0.72077407     0.05800
C1694       C  0.78121139  0.11556488  0.72719416    -0.08800
C1695       C  0.76366638  0.10279508  0.71295804     0.00800
C1696       C  0.76875506  0.10470652  0.69175897     0.00700
C1697       C  0.79168422  0.11862360  0.68551656    -0.12400
C1698       C  0.80919153  0.13166893  0.69980609     0.01100
C1699       C  0.74062746  0.08824788  0.72061955     0.40400
C1700       C  0.83238720  0.14664499  0.69259504     0.37000
C1701       C  0.81843501  0.11535658  0.75584598     0.36800
C1702       C  0.85105331  0.20831282  0.74752657     0.37500
N1703       N  0.72220045  0.07668179  0.72686288    -0.43300
N1704       N  0.85097821  0.15870443  0.68684137    -0.43700
N1705       N  0.85695429  0.22698364  0.74598581    -0.41100
N1706       N  0.81163766  0.09649541  0.75818333    -0.42500
H1707       H  0.84583610  0.14860085  0.78160307     0.13700
H1708       H  0.82470161  0.17534535  0.72114311     0.10200
H1709       H  0.77710886  0.11468475  0.74333438     0.11200
H1710       H  0.79587289  0.12022982  0.66933625     0.17000
C1711       C  0.36365377  0.34182559  0.39339452    -0.01200
C1712       C  0.36505914  0.32451229  0.38579306     0.07400
C1713       C  0.35929874  0.31775790  0.36530150    -0.07100
C1714       C  0.35348949  0.32901389  0.35195414     0.04900
C1715       C  0.35362951  0.34751786  0.35919489    -0.14400
C1716       C  0.35813314  0.35326787  0.38008625    -0.07700
C1717       C  0.37383620  0.31430072  0.39881587     0.05800
C1718       C  0.35871385  0.29197638  0.40611533    -0.08800
C1719       C  0.36627891  0.28252182  0.41973583     0.00800
C1720       C  0.38927029  0.29554697  0.42607874     0.00700
C1721       C  0.40450520  0.31765113  0.41836948    -0.12400
C1722       C  0.39698989  0.32706607  0.40470633     0.01100
C1723       C  0.35016043  0.25967623  0.42737164     0.40400
C1724       C  0.41327078  0.34979927  0.39684669     0.37000
C1725       C  0.36814504  0.34827205  0.41475678     0.36800
C1726       C  0.34865111  0.32193193  0.33077402     0.37500
N1727       N  0.33722826  0.24137100  0.43351962    -0.43300
N1728       N  0.42625061  0.36799948  0.39049196    -0.43700
N1729       N  0.34472794  0.31628034  0.31379295    -0.41100
N1730       N  0.37173336  0.35327712  0.43190302    -0.42500
H1731       H  0.35780221  0.36706057  0.38598992     0.13700
H1732       H  0.36014465  0.30421567  0.35957015     0.10200
H1733       H  0.34093421  0.28216968  0.40152349     0.11200
H1734       H  0.42224233  0.32752514  0.42311110     0.17000
C1735       C  0.44360093  0.43349324  0.26685055    -0.01200
C1736       C  0.45365772  0.45643281  0.26151944     0.07400
C1737       C  0.44457570  0.46755050  0.26938103    -0.07100
C1738       C  0.42528907  0.45606342  0.28192687     0.04900
C1739       C  0.41453619  0.43273491  0.28672627    -0.14400
C1740       C  0.42425430  0.42188919  0.27939859    -0.07700
C1741       C  0.47251500  0.46879369  0.24650785     0.05800
C1742       C  0.46837198  0.47577295  0.22788687    -0.08800
C1743       C  0.48573082  0.48830016  0.21348754     0.00800
C1744       C  0.50751507  0.49333606  0.21729298     0.00700
C1745       C  0.51176286  0.48652158  0.23600950    -0.12400
C1746       C  0.49453818  0.47465108  0.25076879     0.01100
C1747       C  0.48117845  0.49695613  0.19549758     0.40400
C1748       C  0.50008142  0.46979291  0.27055902     0.37000
C1749       C  0.45216663  0.42122888  0.25887075     0.36800
C1750       C  0.41673737  0.46867362  0.28900547     0.37500
N1751       N  0.47755809  0.50414179  0.18125058    -0.43300
N1752       N  0.50444551  0.46602179  0.28652388    -0.43700
N1753       N  0.40995315  0.47885490  0.29463197    -0.41100
N1754       N  0.45907417  0.41141960  0.25252545    -0.42500
H1755       H  0.41638106  0.40409018  0.28298149     0.13700
H1756       H  0.45237692  0.48523803  0.26530860     0.10200
H1757       H  0.45160612  0.47182945  0.22481409     0.11200
H1758       H  0.52871564  0.49106316  0.23927814     0.17000
C1759       C  0.01932773  0.50118187  0.24199072    -0.01200
C1760       C  0.03979098  0.50304307  0.23916360     0.07400
C1761       C  0.05404628  0.51605417  0.22263845    -0.07100
C1762       C  0.04803231  0.52676028  0.20883873     0.04900
C1763       C  0.02723608  0.52424429  0.21125325    -0.14400
C1764       C  0.01322417  0.51176861  0.22805348    -0.07700
C1765       C  0.04602950  0.49055453  0.25251955     0.05800
C1766       C  0.03110617  0.46677216  0.25365368    -0.08800
C1767       C  0.03640988  0.45412434  0.26550360     0.00800
C1768       C  0.05735308  0.46531784  0.27640257     0.00700
C1769       C  0.07230841  0.48920480  0.27519191    -0.12400
C1770       C  0.06682379  0.50181438  0.26343559     0.01100
C1771       C  0.01988836  0.42971973  0.26604445     0.40400
C1772       C  0.08262630  0.52630840  0.26307135     0.37000
C1773       C  0.00434166  0.48846356  0.25903406     0.36800
C1774       C  0.06332160  0.54009046  0.19215896     0.37500
N1775       N  0.00661183  0.41017070  0.26650686    -0.43300
N1776       N  0.09527025  0.54593811  0.26269764    -0.43700
N1777       N  0.07552881  0.55080977  0.17877428    -0.41100
N1778       N  0.99235378  0.47817307  0.27267548    -0.42500
H1779       H  0.99729764  0.50993941  0.23001364     0.13700
H1780       H  0.06971051  0.51746711  0.22027332     0.10200
H1781       H  0.01523690  0.45799964  0.24505973     0.11200
H1782       H  0.08837724  0.49814272  0.28346170     0.17000
C1783       C  0.95784786  0.32067304  0.40311178    -0.01200
C1784       C  0.95809518  0.33620499  0.38953343     0.07400
C1785       C  0.93923029  0.33724377  0.38883813    -0.07100
C1786       C  0.92058121  0.32355929  0.40189335     0.04900
C1787       C  0.92112922  0.30928113  0.41645653    -0.14400
C1788       C  0.93963495  0.30770814  0.41673336    -0.07700
C1789       C  0.97802217  0.35175583  0.37620061     0.05800
C1790       C  0.98286971  0.34277492  0.35985451    -0.08800
C1791       C  0.00179140  0.35687280  0.34718350     0.00800
C1792       C  0.01633034  0.38063351  0.35075902     0.00700
C1793       C  0.01118413  0.38953288  0.36710886    -0.12400
C1794       C  0.99233532  0.37534654  0.37981602     0.01100
C1795       C  0.00567569  0.34630557  0.33070565     0.40400
C1796       C  0.98844057  0.38524089  0.39692567     0.37000
C1797       C  0.97603038  0.31772596  0.40331282     0.36800
C1798       C  0.90093163  0.32410458  0.39990439     0.37500
N1799       N  0.00877197  0.33779014  0.31752311    -0.43300
N1800       N  0.98534429  0.39310571  0.41070305    -0.43700
N1801       N  0.88504207  0.32429165  0.39810525    -0.41100
N1802       N  0.99041293  0.31508151  0.40327567    -0.42500
H1803       H  0.93975360  0.29624313  0.42757241     0.13700
H1804       H  0.93907051  0.34868898  0.37800684     0.10200
H1805       H  0.97181917  0.32461846  0.35704151     0.11200
H1806       H  0.02207550  0.40762499  0.37020806     0.17000
C1807       C  0.18634184  0.47602463  0.56993365    -0.01200
C1808       C  0.16415877  0.45631634  0.56643922     0.07400
C1809       C  0.15952695  0.44381192  0.54845545    -0.07100
C1810       C  0.17671131  0.45060726  0.53406637     0.04900
C1811       C  0.19899783  0.46999687  0.53779073    -0.14400
C1812       C  0.20365324  0.48258266  0.55571149    -0.07700
C1813       C  0.14519345  0.44917016  0.58073195     0.05800
C1814       C  0.13629224  0.46197873  0.58121412    -0.08800
C1815       C  0.11776453  0.45551267  0.59377802     0.00800
C1816       C  0.10764248  0.43566254  0.60619790     0.00700
C1817       C  0.11695682  0.42307453  0.60592427    -0.12400
C1818       C  0.13554697  0.42963979  0.59330315     0.01100
C1819       C  0.11001192  0.46999800  0.59383920     0.40400
C1820       C  0.14464515  0.41631006  0.59367754     0.37000
C1821       C  0.19171519  0.48957588  0.58808548     0.36800
C1822       C  0.17127929  0.43737750  0.51566087     0.37500
N1823       N  0.10397351  0.48176396  0.59382928    -0.43300
N1824       N  0.15197884  0.40566910  0.59403231    -0.43700
N1825       N  0.16707699  0.42696632  0.50080993    -0.41100
N1826       N  0.19598097  0.50048945  0.60259634    -0.42500
H1827       H  0.22085172  0.49737130  0.55864174     0.13700
H1828       H  0.14240327  0.42885577  0.54559569     0.10200
H1829       H  0.14382936  0.47707954  0.57159711     0.11200
H1830       H  0.10956787  0.40791332  0.61541497     0.17000
C1831       C  0.28878759  0.42401225  0.55219739    -0.01200
C1832       C  0.30018200  0.43681590  0.56997446     0.07400
C1833       C  0.30396522  0.45801921  0.57257834    -0.07100
C1834       C  0.29641543  0.46649228  0.55786378     0.04900
C1835       C  0.28503049  0.45370142  0.54016338    -0.14400
C1836       C  0.28123381  0.43251508  0.53748728    -0.07700
C1837       C  0.30968620  0.42920780  0.58537268     0.05800
C1838       C  0.33337019  0.44240403  0.58807883    -0.08800
C1839       C  0.34340802  0.43532677  0.60145384     0.00800
C1840       C  0.32957477  0.41435875  0.61212598     0.00700
C1841       C  0.30575452  0.40192206  0.61040259    -0.12400
C1842       C  0.29573797  0.40924273  0.59721591     0.01100
C1843       C  0.36785402  0.45017356  0.60415763     0.40400
C1844       C  0.27118363  0.39604997  0.59609692     0.37000
C1845       C  0.28517940  0.40245994  0.54844381     0.36800
C1846       C  0.30067976  0.48840892  0.56108942     0.37500
N1847       N  0.38741677  0.46214623  0.60641485    -0.43300
N1848       N  0.25150293  0.38545412  0.59518043    -0.43700
N1849       N  0.30404136  0.50595516  0.56365441    -0.41100
N1850       N  0.28216046  0.38513017  0.54544660    -0.42500
H1851       H  0.27239610  0.42268317  0.52385576     0.13700
H1852       H  0.31291313  0.46797902  0.58612240     0.10200
H1853       H  0.34408001  0.45814884  0.57944169     0.11200
H1854       H  0.29492562  0.38610948  0.61889750     0.17000
C1855       C  0.34193296  0.45212958  0.38829822    -0.01200
C1856       C  0.31944180  0.44576626  0.38964422     0.07400
C1857       C  0.30314008  0.43072940  0.37524444    -0.07100
C1858       C  0.30866667  0.42124137  0.36001975     0.04900
C1859       C  0.33095577  0.42674513  0.35913863    -0.14400
C1860       C  0.34754681  0.44266631  0.37305172    -0.07700
C1861       C  0.31206948  0.45369784  0.40641870     0.05800
C1862       C  0.31914448  0.47635614  0.40647122    -0.08800
C1863       C  0.31095709  0.48379707  0.42131944     0.00800
C1864       C  0.29544001  0.46835406  0.43627509     0.00700
C1865       C  0.28877867  0.44584084  0.43643474    -0.12400
C1866       C  0.29704848  0.43845691  0.42173243     0.01100
C1867       C  0.31871462  0.50725920  0.42099475     0.40400
C1868       C  0.29010174  0.41524621  0.42274858     0.37000
C1869       C  0.35918307  0.46749039  0.40293073     0.36800
C1870       C  0.29117590  0.40619660  0.34541209     0.37500
N1871       N  0.32504321  0.52610968  0.42070508    -0.43300
N1872       N  0.28463046  0.39668339  0.42359133    -0.43700
N1873       N  0.27716267  0.39419559  0.33368002    -0.41100
N1874       N  0.37298997  0.47977840  0.41468069    -0.42500
H1875       H  0.36474132  0.44713003  0.37251168     0.13700
H1876       H  0.28591309  0.42615762  0.37612315     0.10200
H1877       H  0.33076395  0.48808776  0.39471793     0.11200
H1878       H  0.27694964  0.43399749  0.44802922     0.17000
C1879       C  0.16815239  0.46607408  0.36906249    -0.01200
C1880       C  0.16767478  0.47711965  0.38652765     0.07400
C1881       C  0.15085560  0.48101196  0.38821494    -0.07100
C1882       C  0.13391010  0.47320439  0.37321106     0.04900
C1883       C  0.13354549  0.46100896  0.35615153    -0.14400
C1884       C  0.15106515  0.45799539  0.35411736    -0.07700
C1885       C  0.18301907  0.48253796  0.40419408     0.05800
C1886       C  0.20617239  0.50060180  0.40272726    -0.08800
C1887       C  0.22126813  0.50489810  0.41875363     0.00800
C1888       C  0.21313729  0.49076736  0.43640170     0.00700
C1889       C  0.18980098  0.47332231  0.43812772    -0.12400
C1890       C  0.17473444  0.46916709  0.42225566     0.01100
C1891       C  0.24508176  0.52330156  0.41650470     0.40400
C1892       C  0.15104025  0.45034924  0.42441068     0.37000
C1893       C  0.18546366  0.46206574  0.36659810     0.36800
C1894       C  0.11650437  0.47690650  0.37646753     0.37500
N1895       N  0.26417303  0.53803589  0.41463971    -0.43300
N1896       N  0.13205518  0.43528265  0.42614656    -0.43700
N1897       N  0.10262202  0.47995343  0.37919324    -0.41100
N1898       N  0.19940717  0.45896220  0.36461791    -0.42500
H1899       H  0.15119859  0.44894210  0.34100822     0.13700
H1900       H  0.15054294  0.48950945  0.40170412     0.10200
H1901       H  0.21248429  0.51100026  0.38889181     0.11200
H1902       H  0.18352307  0.46225385  0.45155394     0.17000
C1903       C  0.26120600  0.36338375  0.06558889    -0.01200
C1904       C  0.27341033  0.38403730  0.05447206     0.07400
C1905       C  0.26831982  0.39986964  0.05720112    -0.07100
C1906       C  0.25144945  0.39546152  0.07113127     0.04900
C1907       C  0.23945349  0.37489018  0.08258099    -0.14400
C1908       C  0.24432463  0.35892123  0.07944117    -0.07700
C1909       C  0.29260846  0.38981292  0.04110532     0.05800
C1910       C  0.28803010  0.37895485  0.02214226    -0.08800
C1911       C  0.30564442  0.38157490  0.01040983     0.00800
C1912       C  0.32842554  0.39545302  0.01771396     0.00700
C1913       C  0.33286625  0.40684336  0.03646882    -0.12400
C1914       C  0.31523693  0.40406398  0.04815898     0.01100
C1915       C  0.29957125  0.36926034  0.99135676     0.40400
C1916       C  0.32063232  0.41512050  0.06784296     0.37000
C1917       C  0.26635930  0.34692170  0.06347898     0.36800
C1918       C  0.24708400  0.41245724  0.07371447     0.37500
N1919       N  0.29457174  0.35927667  0.97613994    -0.43300
N1920       N  0.32493556  0.42390740  0.08365015    -0.43700
N1921       N  0.24348296  0.42601798  0.07565072    -0.41100
N1922       N  0.27068753  0.33389420  0.06166346    -0.42500
H1923       H  0.23513594  0.34308445  0.08811038     0.13700
H1924       H  0.27782104  0.41582232  0.04870791     0.10200
H1925       H  0.27053121  0.36783042  0.01683014     0.11200
H1926       H  0.35015212  0.41762268  0.04234399     0.17000
C1927       C  0.29201181  0.37779956  0.23408192    -0.01200
C1928       C  0.26902408  0.35904792  0.23575081     0.07400
C1929       C  0.26193812  0.34463461  0.25295994    -0.07100
C1930       C  0.27723147  0.34930087  0.26896175     0.04900
C1931       C  0.30012962  0.36869270  0.26769859    -0.14400
C1932       C  0.30729238  0.38242347  0.24993646    -0.07700
C1933       C  0.25196554  0.35535753  0.22033928     0.05800
C1934       C  0.24309696  0.33750379  0.20627579    -0.08800
C1935       C  0.22851156  0.33501387  0.19040680     0.00800
C1936       C  0.22298035  0.35076695  0.18842071     0.00700
C1937       C  0.23102270  0.36791905  0.20308367    -0.12400
C1938       C  0.24523257  0.37018693  0.21907194     0.01100
C1939       C  0.21935331  0.31624331  0.17642061     0.40400
C1940       C  0.25272647  0.38785924  0.23401421     0.37000
C1941       C  0.30019245  0.39286418  0.21643880     0.36800
C1942       C  0.26854258  0.33470270  0.28690336     0.37500
N1943       N  0.21187868  0.30109498  0.16529152    -0.43300
N1944       N  0.25863371  0.40195144  0.24603699    -0.43700
N1945       N  0.26147727  0.32300468  0.30128877    -0.41100
N1946       N  0.30677292  0.40501197  0.20236166    -0.42500
H1947       H  0.32484193  0.39716873  0.24857556     0.13700
H1948       H  0.24421594  0.33023453  0.25424332     0.10200
H1949       H  0.24792323  0.32582227  0.20747849     0.11200
H1950       H  0.22645816  0.37981136  0.20179508     0.17000
C1951       C  0.12142738  0.40826644  0.02140203    -0.01200
C1952       C  0.11822378  0.40564774  0.04280959     0.07400
C1953       C  0.10535132  0.41190246  0.05239455    -0.07100
C1954       C  0.09501793  0.42007380  0.04085774     0.04900
C1955       C  0.09744485  0.42197379  0.01921000    -0.14400
C1956       C  0.11111559  0.41646164  0.00975516    -0.07700
C1957       C  0.12821403  0.39645549  0.05559681     0.05800
C1958       C  0.15020486  0.41155836  0.06355753    -0.08800
C1959       C  0.15976738  0.40371985  0.07667279     0.00800
C1960       C  0.14728143  0.38040473  0.08179809     0.00700
C1961       C  0.12539453  0.36520659  0.07359386    -0.12400
C1962       C  0.11574535  0.37309972  0.06058999     0.01100
C1963       C  0.18195386  0.41996327  0.08552235     0.40400
C1964       C  0.09285579  0.35714427  0.05299000     0.37000
C1965       C  0.13479986  0.40212636  0.01114942     0.36800
C1966       C  0.08225273  0.42659679  0.05170737     0.37500
N1967       N  0.19966598  0.43288837  0.09277509    -0.43300
N1968       N  0.07447747  0.34439680  0.04694408    -0.43700
N1969       N  0.07200539  0.43185718  0.06029779    -0.41100
N1970       N  0.14554214  0.39713355  0.00309604    -0.42500
H1971       H  0.11312556  0.41780514  0.99319910     0.13700
H1972       H  0.10324770  0.41021594  0.06894735     0.10200
H1973       H  0.15966285  0.42955053  0.05988029     0.11200
H1974       H  0.11567756  0.34733502  0.07781105     0.17000
C1975       C  0.14278180  0.38716225  0.21654253    -0.01200
C1976       C  0.11901594  0.37549136  0.21869234     0.07400
C1977       C  0.10432500  0.35687461  0.20597333    -0.07100
C1978       C  0.11307705  0.35028240  0.19079473     0.04900
C1979       C  0.13687669  0.36248159  0.18820073    -0.14400
C1980       C  0.15149806  0.38058647  0.20141145    -0.07700
C1981       C  0.10941618  0.38288920  0.23396306     0.05800
C1982       C  0.11122780  0.40305948  0.23030815    -0.08800
C1983       C  0.10398850  0.41161519  0.24498641     0.00800
C1984       C  0.09505695  0.40006018  0.26400241     0.00700
C1985       C  0.09254814  0.37939853  0.26726191    -0.12400
C1986       C  0.09956409  0.37076309  0.25241788     0.01100
C1987       C  0.10550019  0.43198209  0.23985796     0.40400
C1988       C  0.09711038  0.34976662  0.25663396     0.37000
C1989       C  0.15850175  0.40597303  0.22970380     0.36800
C1990       C  0.09742896  0.33122631  0.17786947     0.37500
N1991       N  0.10655628  0.44822385  0.23577830    -0.43300
N1992       N  0.09512814  0.33290596  0.25989401    -0.43700
N1993       N  0.08489157  0.31596236  0.16747798    -0.41100
N1994       N  0.17101545  0.42101476  0.24031488    -0.42500
H1995       H  0.16980525  0.38998834  0.19951281     0.13700
H1996       H  0.08603417  0.34774571  0.20770696     0.10200
H1997       H  0.11849194  0.41222773  0.21595256     0.11200
H1998       H  0.08553015  0.37016420  0.28161989     0.17000
C1999       C  0.12340498  0.81918900  0.60759103    -0.01200
C2000       C  0.11982060  0.81289016  0.58675211     0.07400
C2001       C  0.09795290  0.79569567  0.57986386    -0.07100
C2002       C  0.07965813  0.78438876  0.59348101     0.04900
C2003       C  0.08338076  0.78960094  0.61464752    -0.14400
C2004       C  0.10523145  0.80735789  0.62143334    -0.07700
C2005       C  0.13829501  0.82455211  0.57147124     0.05800
C2006       C  0.14654556  0.81282220  0.56310700    -0.08800
C2007       C  0.16288904  0.82271766  0.54750493     0.00800
C2008       C  0.17096249  0.84457446  0.54002619     0.00700
C2009       C  0.16271676  0.85629498  0.54846766    -0.12400
C2010       C  0.14645255  0.84643790  0.56409455     0.01100
C2011       C  0.17117594  0.81026274  0.53938865     0.40400
C2012       C  0.13791311  0.85874532  0.57203728     0.37000
C2013       C  0.14549023  0.83773989  0.61499660     0.36800
C2014       C  0.05710226  0.76855795  0.58508086     0.37500
N2015       N  0.17781156  0.80032240  0.53275477    -0.43300
N2016       N  0.13096944  0.86844733  0.57857191    -0.43700
N2017       N  0.03899429  0.75614104  0.57833254    -0.41100
N2018       N  0.16314474  0.85280878  0.62081661    -0.42500
H2019       H  0.10819108  0.81180287  0.63756771     0.13700
H2020       H  0.09510328  0.79150444  0.56366278     0.10200
H2021       H  0.14007641  0.79587680  0.56870565     0.11200
H2022       H  0.16895920  0.87313225  0.54272543     0.17000
C2023       C  0.07285250  0.71157952  0.71836768    -0.01200
C2024       C  0.06643303  0.68990988  0.71241472     0.07400
C2025       C  0.05267163  0.67966362  0.69501958    -0.07100
C2026       C  0.04508970  0.69061549  0.68354352     0.04900
C2027       C  0.05114116  0.71223914  0.68965056    -0.14400
C2028       C  0.06528587  0.72256360  0.70696676    -0.07700
C2029       C  0.07282268  0.67708754  0.72479890     0.05800
C2030       C  0.05579976  0.65818552  0.73618438    -0.08800
C2031       C  0.06118923  0.64631511  0.74908377     0.00800
C2032       C  0.08389177  0.65315384  0.75041569     0.00700
C2033       C  0.10084472  0.67167393  0.73860328    -0.12400
C2034       C  0.09548856  0.68373836  0.72587381     0.01100
C2035       C  0.04333759  0.62758964  0.76126467     0.40400
C2036       C  0.11346173  0.70297906  0.71423613     0.37000
C2037       C  0.08657404  0.72251512  0.73649203     0.36800
C2038       C  0.03150959  0.67932527  0.66545875     0.37500
N2039       N  0.02904155  0.61259456  0.77104815    -0.43300
N2040       N  0.12784583  0.71847874  0.70496152    -0.43700
N2041       N  0.02068440  0.67017440  0.65095539    -0.41100
N2042       N  0.09760168  0.73122505  0.75100307    -0.42500
H2043       H  0.07011710  0.73910878  0.71191712     0.13700
H2044       H  0.04779729  0.66298741  0.69044374     0.10200
H2045       H  0.03837602  0.65309678  0.73538846     0.11200
H2046       H  0.11832943  0.67700565  0.73975329     0.17000
C2047       C  0.73251735  0.81519383  0.58093587    -0.01200
C2048       C  0.71382964  0.81644074  0.58319797     0.07400
C2049       C  0.70021355  0.80707474  0.60076756    -0.07100
C2050       C  0.70454356  0.79604733  0.61584666     0.04900
C2051       C  0.72266750  0.79378775  0.61324802    -0.14400
C2052       C  0.73670743  0.80383968  0.59583292    -0.07700
C2053       C  0.70743175  0.82657769  0.56716773     0.05800
C2054       C  0.68721110  0.81216646  0.55603789    -0.08800
C2055       C  0.67981207  0.82098125  0.54144294     0.00800
C2056       C  0.69281193  0.84468645  0.53778635     0.00700
C2057       C  0.71308299  0.85907472  0.54891862    -0.12400
C2058       C  0.72039707  0.85023872  0.56358990     0.01100
C2059       C  0.65871205  0.80540052  0.53064024     0.40400
C2060       C  0.74089105  0.86577244  0.57516474     0.37000
C2061       C  0.74728300  0.82494884  0.56325821     0.36800
C2062       C  0.68998913  0.78729716  0.63370671     0.37500
N2063       N  0.64184438  0.79280324  0.52196562    -0.43300
N2064       N  0.75732698  0.87821396  0.58444638    -0.43700
N2065       N  0.67834424  0.78040492  0.64803385    -0.41100
N2066       N  0.75926057  0.83290908  0.54919124    -0.42500
H2067       H  0.75075452  0.80245407  0.59357451     0.13700
H2068       H  0.68601084  0.80830763  0.60263565     0.10200
H2069       H  0.67710665  0.79396431  0.55889342     0.11200
H2070       H  0.72312836  0.87729194  0.54619414     0.17000
C2071       C  0.63841144  0.66682572  0.69978399    -0.01200
C2072       C  0.63112085  0.67584919  0.71399335     0.07400
C2073       C  0.64248904  0.69940222  0.71526349    -0.07100
C2074       C  0.66122744  0.71418557  0.70273280     0.04900
C2075       C  0.66903666  0.70529765  0.68862669    -0.14400
C2076       C  0.65732056  0.68153662  0.68733694    -0.07700
C2077       C  0.61186735  0.66120457  0.72804248     0.05800
C2078       C  0.61627533  0.65555589  0.74725574    -0.08800
C2079       C  0.59881120  0.64323229  0.76164627     0.00800
C2080       C  0.57674361  0.63714487  0.75709437     0.00700
C2081       C  0.57224495  0.64232626  0.73761558    -0.12400
C2082       C  0.58959134  0.65403782  0.72299084     0.01100
C2083       C  0.60367117  0.63643593  0.78074719     0.40400
C2084       C  0.58422562  0.65823204  0.70280173     0.37000
C2085       C  0.62661200  0.64257526  0.69760348     0.36800
C2086       C  0.67205140  0.73828742  0.70502946     0.37500
N2087       N  0.60732234  0.63081263  0.79607937    -0.43300
N2088       N  0.58002710  0.66143540  0.68650617    -0.43700
N2089       N  0.68060209  0.75757396  0.70690435    -0.41100
N2090       N  0.61709118  0.62313996  0.69572765    -0.42500
H2091       H  0.66290375  0.67436407  0.67658187     0.13700
H2092       H  0.63671237  0.70624870  0.72621013     0.10200
H2093       H  0.63338683  0.66079370  0.75097389     0.11200
H2094       H  0.55511798  0.63698544  0.73381276     0.17000
C2095       C  0.92679603  0.70297937  0.41543690    -0.01200
C2096       C  0.93382037  0.72123236  0.40175273     0.07400
C2097       C  0.92463657  0.73375050  0.40370804    -0.07100
C2098       C  0.90828023  0.72800022  0.41874873     0.04900
C2099       C  0.90072803  0.70927035  0.43203345    -0.14400
C2100       C  0.91030691  0.69709578  0.43035444    -0.07700
C2101       C  0.95029106  0.72709681  0.38499663     0.05800
C2102       C  0.94384389  0.71154152  0.36905017    -0.08800
C2103       C  0.95907515  0.71601895  0.35326805     0.00800
C2104       C  0.98131677  0.73648379  0.35329753     0.00700
C2105       C  0.98743957  0.75232284  0.36897473    -0.12400
C2106       C  0.97220917  0.74777851  0.38476001     0.01100
C2107       C  0.95119040  0.69953278  0.33707729     0.40400
C2108       C  0.97977872  0.76418187  0.40097934     0.37000
C2109       C  0.93656730  0.69030760  0.41465545     0.36800
C2110       C  0.89949590  0.74153832  0.42028737     0.37500
N2111       N  0.94469755  0.68628603  0.32410414    -0.43300
N2112       N  0.98590307  0.77735713  0.41396349    -0.43700
N2113       N  0.89239525  0.75233235  0.42149551    -0.41100
N2114       N  0.94448433  0.68022509  0.41406768    -0.42500
H2115       H  0.90470113  0.68281931  0.44061808     0.13700
H2116       H  0.93009333  0.74788226  0.39330178     0.10200
H2117       H  0.92683798  0.69578281  0.36900716     0.11200
H2118       H  0.00449018  0.76800027  0.36933533     0.17000
C2119       C  0.91467782  0.68438753  0.55340589    -0.01200
C2120       C  0.91690030  0.69730789  0.57056259     0.07400
C2121       C  0.90340131  0.70548227  0.57167033    -0.07100
C2122       C  0.88834203  0.70158756  0.55578375     0.04900
C2123       C  0.88618401  0.68880849  0.53848240    -0.14400
C2124       C  0.89911195  0.67990950  0.53773442    -0.07700
C2125       C  0.93509890  0.70501964  0.58622032     0.05800
C2126       C  0.95266220  0.72829051  0.58708338    -0.08800
C2127       C  0.97036256  0.73681546  0.60138375     0.00800
C2128       C  0.97075088  0.72184216  0.61539694     0.00700
C2129       C  0.95309182  0.69844785  0.61448760    -0.12400
C2130       C  0.93525437  0.68999582  0.60016812     0.01100
C2131       C  0.98815084  0.76096076  0.60075903     0.40400
C2132       C  0.91699588  0.66602027  0.60047049     0.37000
C2133       C  0.92932199  0.67698951  0.55086124     0.36800
C2134       C  0.87626807  0.71198145  0.55709091     0.37500
N2135       N  0.00238522  0.78030431  0.60023198    -0.43300
N2136       N  0.90234500  0.64679891  0.60078450    -0.43700
N2137       N  0.86652035  0.72023173  0.55812142    -0.41100
N2138       N  0.94118972  0.67121487  0.54880773    -0.42500
H2139       H  0.89774603  0.67029146  0.52442332     0.13700
H2140       H  0.90534068  0.71575172  0.58466081     0.10200
H2141       H  0.95262881  0.73987579  0.57632275     0.11200
H2142       H  0.95303394  0.68675545  0.62515243     0.17000
C2143       C  0.80799770  0.72876881  0.40486174    -0.01200
C2144       C  0.78626508  0.71398843  0.39584287     0.07400
C2145       C  0.77250435  0.69101524  0.40206698    -0.07100
C2146       C  0.77954067  0.68299818  0.41778167     0.04900
C2147       C  0.80113276  0.69782696  0.42681303    -0.14400
C2148       C  0.81533125  0.72050352  0.42004149    -0.07700
C2149       C  0.77679074  0.72245080  0.38118209     0.05800
C2150       C  0.78853023  0.73362140  0.36295354    -0.08800
C2151       C  0.78000670  0.74202622  0.34907259     0.00800
C2152       C  0.75906319  0.73880394  0.35322418     0.00700
C2153       C  0.74748356  0.72764969  0.37149295    -0.12400
C2154       C  0.75614858  0.71967014  0.38543285     0.01100
C2155       C  0.79294437  0.75350132  0.33070346     0.40400
C2156       C  0.74367762  0.70910919  0.40423284     0.37000
C2157       C  0.82259469  0.75267341  0.39961378     0.36800
C2158       C  0.76417970  0.65974875  0.42475921     0.37500
N2159       N  0.80342351  0.76275783  0.31603855    -0.43300
N2160       N  0.73362877  0.70052136  0.41923343    -0.43700
N2161       N  0.75174918  0.64117936  0.43050399    -0.41100
N2162       N  0.83429774  0.77183592  0.39543383    -0.42500
H2163       H  0.83197088  0.73190765  0.42707173     0.13700
H2164       H  0.75586555  0.67950282  0.39508932     0.10200
H2165       H  0.80436741  0.73572340  0.35954873     0.11200
H2166       H  0.73157560  0.72531045  0.37512023     0.17000
C2167       C  0.79386534  0.70239948  0.56313850    -0.01200
C2168       C  0.77002981  0.69015903  0.56539788     0.07400
C2169       C  0.75560447  0.67228359  0.55188969    -0.07100
C2170       C  0.76462450  0.66656632  0.53620986     0.04900
C2171       C  0.78848330  0.67905739  0.53382389    -0.14400
C2172       C  0.80280607  0.69670514  0.54752807    -0.07700
C2173       C  0.75995570  0.69661446  0.58104605     0.05800
C2174       C  0.74798128  0.70550618  0.57446166    -0.08800
C2175       C  0.74003619  0.71381713  0.58863929     0.00800
C2176       C  0.74420130  0.71336448  0.60983044     0.00700
C2177       C  0.75550915  0.70376588  0.61642040    -0.12400
C2178       C  0.76312115  0.69515207  0.60226103     0.01100
C2179       C  0.72908162  0.72410202  0.58094382     0.40400
C2180       C  0.77409142  0.68486198  0.60983643     0.37000
C2181       C  0.80957030  0.72156848  0.57597517     0.36800
C2182       C  0.74912640  0.64812090  0.52266215     0.37500
N2183       N  0.72035182  0.73241202  0.57484949    -0.43300
N2184       N  0.78285748  0.67659160  0.61592252    -0.43700
N2185       N  0.73656330  0.63338904  0.51180043    -0.41100
N2186       N  0.82231575  0.73693254  0.58618365    -0.42500
H2187       H  0.82114346  0.70657831  0.54557835     0.13700
H2188       H  0.73727445  0.66291671  0.55352947     0.10200
H2189       H  0.74553568  0.70666645  0.55815066     0.11200
H2190       H  0.75855238  0.70314726  0.63268443     0.17000
C2191       C  0.94843135  0.75860531  0.91183395    -0.01200
C2192       C  0.97242870  0.77329341  0.91385285     0.07400
C2193       C  0.98448881  0.79392292  0.90277428    -0.07100
C2194       C  0.97317596  0.79963329  0.88937825     0.04900
C2195       C  0.94941532  0.78435773  0.88656753    -0.14400
C2196       C  0.93719801  0.76418926  0.89819904    -0.07700
C2197       C  0.98540482  0.76653519  0.92581977     0.05800
C2198       C  0.98283785  0.74635561  0.92052491    -0.08800
C2199       C  0.99563717  0.73982394  0.93027755     0.00800
C2200       C  0.01125256  0.75347276  0.94596236     0.00700
C2201       C  0.01401987  0.77380244  0.95112013    -0.12400
C2202       C  0.00138750  0.78046321  0.94118975     0.01100
C2203       C  0.99360016  0.71998447  0.92275827     0.40400
C2204       C  0.00525648  0.80168268  0.94704686     0.37000
C2205       C  0.93493147  0.73766343  0.92348444     0.36800
C2206       C  0.98627157  0.82118108  0.87860984     0.37500
N2207       N  0.99209135  0.70423789  0.91645426    -0.43300
N2208       N  0.00864479  0.81882921  0.95168335    -0.43700
N2209       N  0.99681113  0.83852937  0.87009357    -0.41100
N2210       N  0.92399246  0.72084269  0.93275205    -0.42500
H2211       H  0.91886629  0.75255274  0.89626694     0.13700
H2212       H  0.00289687  0.80530390  0.90410273     0.10200
H2213       H  0.97128636  0.73600575  0.90818154     0.11200
H2214       H  0.02611671  0.78456694  0.96299352     0.17000
C2215       C  0.95169866  0.77999419  0.74766568    -0.01200
C2216       C  0.97563315  0.79242434  0.74851055     0.07400
C2217       C  0.98769452  0.80781860  0.76448337    -0.07100
C2218       C  0.97609846  0.81035603  0.78003696     0.04900
C2219       C  0.95204793  0.79697477  0.77985621    -0.14400
C2220       C  0.94007721  0.78223020  0.76338650    -0.07700
C2221       C  0.98805623  0.78793570  0.73387988     0.05800
C2222       C  0.99216568  0.79701185  0.71395904    -0.08800
C2223       C  0.00192357  0.79120187  0.69919075     0.00800
C2224       C  0.00741186  0.77581588  0.70436889     0.00700
C2225       C  0.00378809  0.76725750  0.72451761    -0.12400
C2226       C  0.99434635  0.77333774  0.73930133     0.01100
C2227       C  0.00475090  0.80013750  0.67859826     0.40400
C2228       C  0.99053517  0.76383418  0.75976885     0.37000
C2229       C  0.93874994  0.76427474  0.73121412     0.36800
C2230       C  0.98911147  0.82639903  0.79624478     0.37500
N2231       N  0.00698072  0.80727711  0.66209145    -0.43300
N2232       N  0.98749184  0.75631973  0.77620603    -0.43700
N2233       N  0.99939603  0.83910717  0.80937121    -0.41100
N2234       N  0.92844999  0.75175894  0.71796647    -0.42500
H2235       H  0.92159460  0.77204616  0.76311420     0.13700
H2236       H  0.00613121  0.81744187  0.76501674     0.10200
H2237       H  0.98717839  0.80815857  0.70983516     0.11200
H2238       H  0.00806744  0.75554962  0.72865216     0.17000
C2239       C  0.83171086  0.79635262  0.90550401    -0.01200
C2240       C  0.82126420  0.77693934  0.91838554     0.07400
C2241       C  0.82818959  0.76239266  0.91739982    -0.07100
C2242       C  0.84449706  0.76626810  0.90319249     0.04900
C2243       C  0.85439660  0.78523688  0.88981790    -0.14400
C2244       C  0.84834836  0.80046338  0.89150180    -0.07700
C2245       C  0.80115967  0.76965127  0.93110751     0.05800
C2246       C  0.78050596  0.74901662  0.92620911    -0.08800
C2247       C  0.76099657  0.74064610  0.93791973     0.00800
C2248       C  0.76182257  0.75332475  0.95467599     0.00700
C2249       C  0.78249722  0.77409219  0.95956210    -0.12400
C2250       C  0.80225578  0.78211691  0.94814569     0.01100
C2251       C  0.74023322  0.71933700  0.93197118     0.40400
C2252       C  0.82356110  0.80255298  0.95463886     0.37000
C2253       C  0.82472913  0.81148836  0.90542017     0.36800
C2254       C  0.84989298  0.74991503  0.90198614     0.37500
N2255       N  0.72362824  0.70221613  0.92724484    -0.43300
N2256       N  0.84069780  0.81884913  0.95986185    -0.43700
N2257       N  0.85416759  0.73676497  0.90117225    -0.41100
N2258       N  0.81926984  0.82373547  0.90525527    -0.42500
H2259       H  0.85599629  0.81507223  0.88124010     0.13700
H2260       H  0.82009317  0.74740766  0.92723172     0.10200
H2261       H  0.77966854  0.73936699  0.91313622     0.11200
H2262       H  0.78331111  0.78379796  0.97256364     0.17000
C2263       C  0.83218820  0.77443918  0.75383749    -0.01200
C2264       C  0.82938189  0.79188653  0.74965563     0.07400
C2265       C  0.84062606  0.81139345  0.76190637    -0.07100
C2266       C  0.85451428  0.81360809  0.77831893     0.04900
C2267       C  0.85717337  0.79606811  0.78256633    -0.14400
C2268       C  0.84606634  0.77667848  0.77017812    -0.07700
C2269       C  0.81350261  0.78916920  0.73341895     0.05800
C2270       C  0.79037147  0.77726148  0.73829458    -0.08800
C2271       C  0.77422369  0.77195053  0.72307209     0.00800
C2272       C  0.78120012  0.77841481  0.70241860     0.00700
C2273       C  0.80457664  0.79152661  0.69777880    -0.12400
C2274       C  0.82074038  0.79688367  0.71312010     0.01100
C2275       C  0.75064659  0.75999375  0.72914507     0.40400
C2276       C  0.84451821  0.80960756  0.70761427     0.37000
C2277       C  0.82088840  0.75406316  0.74161404     0.36800
C2278       C  0.86599363  0.83400307  0.79047296     0.37500
N2279       N  0.73177787  0.75050677  0.73403122    -0.43300
N2280       N  0.86358306  0.81985867  0.70318181    -0.43700
N2281       N  0.87519449  0.85039657  0.80017941    -0.41100
N2282       N  0.81184461  0.73772924  0.73182903    -0.42500
H2283       H  0.84826515  0.76326692  0.77333684     0.13700
H2284       H  0.83836228  0.82475469  0.75874305     0.10200
H2285       H  0.78488243  0.77165587  0.75400242     0.11200
H2286       H  0.81014482  0.79668393  0.68202412     0.17000
C2287       C  0.74903363  0.00187812  0.06795595    -0.01200
C2288       C  0.72666261  0.98839640  0.05982904     0.07400
C2289       C  0.71183770  0.96558933  0.06622974    -0.07100
C2290       C  0.71890836  0.95628952  0.08063968     0.04900
C2291       C  0.74124989  0.96979525  0.08863308    -0.14400
C2292       C  0.75613850  0.99248107  0.08218580    -0.07700
C2293       C  0.71852024  0.99791896  0.04476621     0.05800
C2294       C  0.73017249  0.00693704  0.02610304    -0.08800
C2295       C  0.72415408  0.01753091  0.01210669     0.00800
C2296       C  0.70584933  0.01898438  0.01656726     0.00700
C2297       C  0.69357058  0.00904425  0.03486157    -0.12400
C2298       C  0.69978985  0.99869808  0.04895592     0.01100
C2299       C  0.73691938  0.02643746  0.99323042     0.40400
C2300       C  0.68729154  0.98990604  0.06798558     0.37000
C2301       C  0.76477048  0.02560259  0.06247033     0.36800
C2302       C  0.70286290  0.93307047  0.08747596     0.37500
N2303       N  0.74722356  0.03350027  0.97812748    -0.43300
N2304       N  0.67722870  0.98281941  0.08320744    -0.43700
N2305       N  0.69008117  0.91450610  0.09309650    -0.41100
N2306       N  0.77739193  0.04461326  0.05805819    -0.42500
H2307       H  0.77323736  0.00292509  0.08853718     0.13700
H2308       H  0.69466896  0.95509220  0.06004727     0.10200
H2309       H  0.74426727  0.00594831  0.02258715     0.11200
H2310       H  0.67954200  0.01007321  0.03855713     0.17000
C2311       C  0.80452975  0.17127678  0.89088038    -0.01200
C2312       C  0.80326031  0.15298732  0.90051040     0.07400
C2313       C  0.81963529  0.14897163  0.89598432    -0.07100
C2314       C  0.83706103  0.16283705  0.88183112     0.04900
C2315       C  0.83848767  0.18134341  0.87240875    -0.14400
C2316       C  0.82225512  0.18547405  0.87716274    -0.07700
C2317       C  0.78404684  0.13701208  0.91426673     0.05800
C2318       C  0.76372433  0.11892900  0.90549294    -0.08800
C2319       C  0.74478099  0.10373290  0.91772198     0.00800
C2320       C  0.74613744  0.10637394  0.93936072     0.00700
C2321       C  0.76658129  0.12474862  0.94802239    -0.12400
C2322       C  0.78541163  0.14002676  0.93568404     0.01100
C2323       C  0.72409686  0.08622907  0.90739766     0.40400
C2324       C  0.80584053  0.15881617  0.94529090     0.37000
C2325       C  0.78739158  0.17529653  0.89438010     0.36800
C2326       C  0.85279333  0.15734737  0.87671017     0.37500
N2327       N  0.70760291  0.07239567  0.89889350    -0.43300
N2328       N  0.82214695  0.17388990  0.95307308    -0.43700
N2329       N  0.86523891  0.15274270  0.87256381    -0.41100
N2330       N  0.77351989  0.17836083  0.89708035    -0.42500
H2331       H  0.82313850  0.19948449  0.86970471     0.13700
H2332       H  0.81842919  0.13465165  0.90312205     0.10200
H2333       H  0.76259564  0.11688961  0.88894166     0.11200
H2334       H  0.76794930  0.12718843  0.96451504     0.17000
C2335       C  0.37288692  0.13141777  0.90550264    -0.01200
C2336       C  0.37567544  0.15181856  0.91043276     0.07400
C2337       C  0.38574764  0.16239028  0.92919248    -0.07100
C2338       C  0.39273369  0.15270544  0.94324253     0.04900
C2339       C  0.38920171  0.13173994  0.93866127    -0.14400
C2340       C  0.37938309  0.12146715  0.91964043    -0.07700
C2341       C  0.36792288  0.16218531  0.89623508     0.05800
C2342       C  0.34446296  0.15071903  0.89257587    -0.08800
C2343       C  0.33648593  0.15959826  0.87874824     0.00800
C2344       C  0.35217949  0.18009460  0.86825992     0.00700
C2345       C  0.37556322  0.19180189  0.87221723    -0.12400
C2346       C  0.38354041  0.18305105  0.88616256     0.01100
C2347       C  0.31223341  0.14762589  0.87566152     0.40400
C2348       C  0.40779588  0.19545904  0.88949912     0.37000
C2349       C  0.36412826  0.12080005  0.88574576     0.36800
C2350       C  0.40321247  0.16464992  0.96216099     0.37500
N2351       N  0.29279304  0.13816884  0.87330821    -0.43300
N2352       N  0.42724536  0.20548304  0.89219863    -0.43700
N2353       N  0.41172059  0.17445695  0.97721653    -0.41100
N2354       N  0.35732410  0.11238093  0.86985864    -0.42500
H2355       H  0.37694157  0.10564911  0.91562473     0.13700
H2356       H  0.38804183  0.17821813  0.93288350     0.10200
H2357       H  0.33242178  0.13481064  0.90052919     0.11200
H2358       H  0.38757394  0.20763821  0.86414855     0.17000
C2359       C  0.31769869  0.01975660  0.03710094    -0.01200
C2360       C  0.30678329  0.02914390  0.04533504     0.07400
C2361       C  0.31335534  0.05064091  0.03836084    -0.07100
C2362       C  0.33085681  0.06299342  0.02392824     0.04900
C2363       C  0.34287486  0.05426154  0.01685951    -0.14400
C2364       C  0.33566849  0.03239614  0.02323349    -0.07700
C2365       C  0.28933254  0.01715749  0.06183750     0.05800
C2366       C  0.29472548  0.00965176  0.07944085    -0.08800
C2367       C  0.27844849  0.99670606  0.09461816     0.00800
C2368       C  0.25657275  0.99191376  0.09280086     0.00700
C2369       C  0.25135263  0.00015510  0.07574194    -0.12400
C2370       C  0.26744964  0.01263635  0.06024805     0.01100
C2371       C  0.28420304  0.98762959  0.11140864     0.40400
C2372       C  0.26072479  0.01987660  0.04268280     0.37000
C2373       C  0.31077582  0.99712130  0.04255347     0.36800
C2374       C  0.33565072  0.08424899  0.01633787     0.37500
N2375       N  0.28876285  0.98021785  0.12478119    -0.43300
N2376       N  0.25521400  0.02575085  0.02874776    -0.43700
N2377       N  0.33931848  0.10114797  0.01007027    -0.41100
N2378       N  0.30529712  0.97902418  0.04697084    -0.42500
H2379       H  0.34436257  0.02522637  0.01766642     0.13700
H2380       H  0.30503778  0.05799610  0.04443332     0.10200
H2381       H  0.31160046  0.01343807  0.08108208     0.11200
H2382       H  0.23445297  0.99636804  0.07435089     0.17000
C2383       C  0.67179471  0.09435774  0.23996373    -0.01200
C2384       C  0.65206501  0.09302493  0.24464256     0.07400
C2385       C  0.64054523  0.08290727  0.26310867    -0.07100
C2386       C  0.64847442  0.07401725  0.27703568     0.04900
C2387       C  0.66824073  0.07510554  0.27231695    -0.14400
C2388       C  0.67964329  0.08535884  0.25369227    -0.07700
C2389       C  0.64280408  0.10146419  0.23005204     0.05800
C2390       C  0.62864028  0.08711304  0.21419811    -0.08800
C2391       C  0.61953270  0.09440851  0.19993968     0.00800
C2392       C  0.62470881  0.11640979  0.20152883     0.00700
C2393       C  0.63901374  0.13083585  0.21730586    -0.12400
C2394       C  0.64815236  0.12351868  0.23156526     0.01100
C2395       C  0.60459916  0.07894130  0.18407181     0.40400
C2396       C  0.66304040  0.13887017  0.24750318     0.37000
C2397       C  0.68441620  0.10517014  0.22129057     0.36800
C2398       C  0.63626567  0.06448914  0.29609827     0.37500
N2399       N  0.59258180  0.06645023  0.17142763    -0.43300
N2400       N  0.67500710  0.15121659  0.26025106    -0.43700
N2401       N  0.62639585  0.05695977  0.31136282    -0.41100
N2402       N  0.69460805  0.11393456  0.20638913    -0.42500
H2403       H  0.69487626  0.08648758  0.24978531     0.13700
H2404       H  0.62534352  0.08200561  0.26662377     0.10200
H2405       H  0.62464854  0.07017241  0.21305696     0.11200
H2406       H  0.64293834  0.14774203  0.21847012     0.17000
C2407       C  0.47575829  0.09373487  0.26465173    -0.01200
C2408       C  0.47760513  0.10343449  0.24524581     0.07400
C2409       C  0.46192205  0.10800627  0.23939589    -0.07100
C2410       C  0.44456715  0.10337408  0.25273441     0.04900
C2411       C  0.44278961  0.09398532  0.27254983    -0.14400
C2412       C  0.45850354  0.08915917  0.27814737    -0.07700
C2413       C  0.49636991  0.10985596  0.23106795     0.05800
C2414       C  0.49293187  0.09438455  0.21607335    -0.08800
C2415       C  0.51020571  0.10024593  0.20209703     0.18800
C2416       C  0.53121401  0.12185657  0.20312250     0.00700
C2417       C  0.53470214  0.13728614  0.21818590    -0.12400
C2418       C  0.51737307  0.13145089  0.23210339     0.01100
C2419       C  0.50616191  0.08394109  0.18680659     0.40400
C2420       C  0.52126617  0.14787524  0.24717322     0.37000
C2421       C  0.49144743  0.08841377  0.27095445     0.36800
C2422       C  0.42921586  0.10881822  0.24553697     0.37500
N2423       N  0.50309890  0.07100046  0.17449511    -0.43300
N2424       N  0.52419273  0.16094107  0.25927733    -0.43700
N2425       N  0.41702438  0.11323957  0.23956765    -0.41100
N2426       N  0.50404776  0.08413689  0.27587899    -0.42500
H2427       H  0.45733690  0.08175991  0.29309185     0.13700
H2428       H  0.46344836  0.11549386  0.22439420     0.10200
H2429       H  0.47673061  0.07780321  0.21526499     0.11200
H2430       H  0.55086974  0.15390173  0.21892256     0.17000
C2431       C  0.52662464  0.15823441  0.07881792    -0.01200
C2432       C  0.50698976  0.13684264  0.07303500     0.07400
C2433       C  0.50392901  0.11696713  0.08071880    -0.07100
C2434       C  0.51982305  0.11812612  0.09413971     0.04900
C2435       C  0.53937025  0.13947305  0.09993632    -0.14400
C2436       C  0.54264219  0.15938823  0.09219160    -0.07700
C2437       C  0.48977617  0.13447789  0.05836474     0.05800
C2438       C  0.49657601  0.14358491  0.03843870    -0.08800
C2439       C  0.48042789  0.13892078  0.02333791     0.00800
C2440       C  0.45692738  0.12385024  0.02782384     0.00700
C2441       C  0.45022414  0.11585782  0.04806912    -0.12400
C2442       C  0.46641013  0.12154978  0.06340719     0.01100
C2443       C  0.48850367  0.14915378  0.00326401     0.40400
C2444       C  0.45870073  0.11432766  0.08427579     0.37000
C2445       C  0.53036302  0.17915735  0.07167438     0.36800
C2446       C  0.51579578  0.09722750  0.10183642     0.37500
N2447       N  0.49507933  0.15766842  0.98728702    -0.43300
N2448       N  0.45252466  0.10882639  0.10103701    -0.43700
N2449       N  0.51271782  0.08054777  0.10799410    -0.41100
N2450       N  0.53332692  0.19589496  0.06586346    -0.42500
H2451       H  0.55753383  0.17581110  0.09688483     0.13700
H2452       H  0.48908953  0.10045912  0.07611259     0.10200
H2453       H  0.51452141  0.15380224  0.03447977     0.11200
H2454       H  0.43224379  0.10500576  0.05190397     0.17000
C2455       C  0.65765921  0.14192134  0.07032703    -0.01200
C2456       C  0.65251304  0.11983559  0.06947803     0.07400
C2457       C  0.63706340  0.10321967  0.08360485    -0.07100
C2458       C  0.62635586  0.10808468  0.09811622     0.04900
C2459       C  0.63107321  0.12996410  0.09867354    -0.14400
C2460       C  0.64679527  0.14677345  0.08482526    -0.07700
C2461       C  0.66231070  0.11313732  0.05374276     0.05800
C2462       C  0.67461827  0.10458723  0.06025679    -0.08800
C2463       C  0.68162843  0.09528539  0.04621433     0.00800
C2464       C  0.67674944  0.09489772  0.02506228     0.00700
C2465       C  0.66509343  0.10417944  0.01849530    -0.12400
C2466       C  0.65742878  0.11277850  0.03265699     0.01100
C2467       C  0.69350041  0.08600145  0.05401558     0.40400
C2468       C  0.64304574  0.11942146  0.02542797     0.37000
C2469       C  0.67423874  0.15990074  0.05675830     0.36800
C2470       C  0.61036143  0.09027798  0.11214665     0.37500
N2471       N  0.70287153  0.07839592  0.06022018    -0.43300
N2472       N  0.63139343  0.12465145  0.01980901    -0.43700
N2473       N  0.59757350  0.07600520  0.12339572    -0.41100
N2474       N  0.68746586  0.17431436  0.04583991    -0.42500
H2475       H  0.65065929  0.16368535  0.08546965     0.13700
H2476       H  0.63306355  0.08624173  0.08304505     0.10200
H2477       H  0.67815123  0.10456725  0.07649274     0.11200
H2478       H  0.66083132  0.10356743  0.00237772     0.17000
C2479       C  0.61197686  0.06081147  0.73984403    -0.01200
C2480       C  0.60468181  0.04707468  0.72217311     0.07400
C2481       C  0.58152665  0.02927631  0.71989169    -0.07100
C2482       C  0.56564176  0.02515467  0.73483549     0.04900
C2483       C  0.57299969  0.03867697  0.75263874    -0.14400
C2484       C  0.59615393  0.05644718  0.75492882    -0.07700
C2485       C  0.62110749  0.05043558  0.70635886     0.05800
C2486       C  0.62525041  0.03383190  0.70428635    -0.08800
C2487       C  0.64199960  0.03709833  0.69082611     0.00800
C2488       C  0.65519843  0.05755664  0.67923750     0.00700
C2489       C  0.65000301  0.07354119  0.68054727    -0.12400
C2490       C  0.63306967  0.07007767  0.69383637     0.01100
C2491       C  0.64516117  0.01914638  0.68941709     0.40400
C2492       C  0.62822467  0.08687531  0.69434038     0.37000
C2493       C  0.63560379  0.07938347  0.74289413     0.36800
C2494       C  0.54188479  0.00713407  0.73151445     0.37500
N2495       N  0.64753823  0.00464978  0.68828250    -0.43300
N2496       N  0.62432378  0.10032519  0.69469445    -0.43700
N2497       N  0.52283262  0.99277862  0.72873416    -0.41100
N2498       N  0.65450131  0.09439812  0.74527399    -0.42500
H2499       H  0.60179048  0.06708080  0.76844750     0.13700
H2500       H  0.57586021  0.01871843  0.70632052     0.10200
H2501       H  0.61567910  0.01845671  0.71359339     0.11200
H2502       H  0.65950658  0.08909131  0.67148616     0.17000
C2503       C  0.46185058  0.04056959  0.72270552    -0.01200
C2504       C  0.46336315  0.06090883  0.72357311     0.07400
C2505       C  0.47577758  0.07639049  0.73944618    -0.07100
C2506       C  0.48645859  0.07170557  0.75454255     0.04900
C2507       C  0.48464749  0.05121104  0.75380308    -0.14400
C2508       C  0.47255574  0.03590951  0.73777652    -0.07700
C2509       C  0.45112582  0.06581834  0.70870120     0.05800
C2510       C  0.42729275  0.05231865  0.70928009    -0.08800
C2511       C  0.41489407  0.05693277  0.69628200     0.00800
C2512       C  0.42649164  0.07545954  0.68226458     0.00700
C2513       C  0.45045796  0.08884804  0.68162473    -0.12400
C2514       C  0.46280080  0.08413515  0.69468989     0.01100
C2515       C  0.39039989  0.04296628  0.69847635     0.40400
C2516       C  0.48737598  0.09808996  0.69338787     0.37000
C2517       C  0.44954600  0.02435814  0.70644857     0.36800
C2518       C  0.49919750  0.08809469  0.77058453     0.37500
N2519       N  0.37078134  0.03178586  0.70030993    -0.43300
N2520       N  0.50707140  0.10916103  0.69244836    -0.43700
N2521       N  0.50941373  0.10124774  0.78342864    -0.41100
N2522       N  0.43966656  0.01134715  0.69343106    -0.42500
H2523       H  0.47137899  0.02024558  0.73717158     0.13700
H2524       H  0.47684285  0.09198991  0.74015804     0.10200
H2525       H  0.41837293  0.03838572  0.72027868     0.11200
H2526       H  0.45959157  0.10304770  0.67093311     0.17000
C2527       C  0.56614330  0.99817147  0.88373306    -0.01200
C2528       C  0.58752526  0.01790719  0.88919153     0.07400
C2529       C  0.59614438  0.03832534  0.87847595    -0.07100
C2530       C  0.58350703  0.03939789  0.86269507     0.04900
C2531       C  0.56188689  0.01978574  0.85749997    -0.14400
C2532       C  0.55341392  0.99923740  0.86795509    -0.07700
C2533       C  0.60090036  0.01811775  0.90665071     0.05800
C2534       C  0.61901440  0.01654430  0.90274469    -0.08800
C2535       C  0.63414899  0.02007454  0.91844502     0.00800
C2536       C  0.63137234  0.02566125  0.93842486     0.00700
C2537       C  0.61237625  0.02591492  0.94246955    -0.12400
C2538       C  0.59713458  0.02210137  0.92678829     0.01100
C2539       C  0.65326573  0.01955249  0.91316409     0.40400
C2540       C  0.57840359  0.02349193  0.93140863     0.37000
C2541       C  0.55701178  0.97682028  0.89424042     0.36800
C2542       C  0.59268903  0.06086825  0.85233949     0.37500
N2543       N  0.66857622  0.01910992  0.90894300    -0.43300
N2544       N  0.56334376  0.02455603  0.93500895    -0.43700
N2545       N  0.59991468  0.07800420  0.84396738    -0.41100
N2546       N  0.54981457  0.95973781  0.90269884    -0.42500
H2547       H  0.53679469  0.98415802  0.86391241     0.13700
H2548       H  0.61259276  0.05352794  0.88273179     0.10200
H2549       H  0.62184277  0.01344949  0.88720464     0.11200
H2550       H  0.60995254  0.03004399  0.95772633     0.17000
C2551       C  0.42132676  0.04175576  0.90837229    -0.01200
C2552       C  0.44485146  0.05194840  0.90610280     0.07400
C2553       C  0.46026471  0.06905925  0.91971766    -0.07100
C2554       C  0.45274180  0.07638775  0.93529359     0.04900
C2555       C  0.42918569  0.06664430  0.93739266    -0.14400
C2556       C  0.41368882  0.04907241  0.92396881    -0.07700
C2557       C  0.45412506  0.04577742  0.88931182     0.05800
C2558       C  0.46752223  0.06214429  0.87415889    -0.08800
C2559       C  0.47825888  0.05796108  0.85898540     0.00800
C2560       C  0.47533854  0.03683874  0.85853444     0.00700
C2561       C  0.46178394  0.02036169  0.87363109    -0.12400
C2562       C  0.45141865  0.02478704  0.88910418     0.01100
C2563       C  0.49294012  0.07595220  0.84451735     0.40400
C2564       C  0.43911588  0.00812696  0.90522957     0.37000
C2565       C  0.40483933  0.02437846  0.89444268     0.36800
C2566       C  0.46970892  0.09376824  0.94895551     0.37500
N2567       N  0.50474651  0.09035039  0.83293094    -0.43300
N2568       N  0.42935598  0.99493142  0.91829776    -0.43700
N2569       N  0.48335161  0.10767539  0.95989019    -0.41100
N2570       N  0.39162439  0.01043482  0.88328687    -0.42500
H2571       H  0.39560163  0.04145030  0.92525483     0.13700
H2572       H  0.47835511  0.07679276  0.91809869     0.10200
H2573       H  0.47001220  0.07847360  0.87449322     0.11200
H2574       H  0.45974609  0.00425103  0.87356627     0.17000
loop_ 
_geom_bond_atom_site_label_1 
_geom_bond_atom_site_label_2 
_geom_bond_distance 
_geom_bond_site_symmetry_2 
_ccdc_geom_bond_type 
N1            C6   1.353       .  A
N1            C5   1.357       .  A
N1           H33   1.039       .  S
N2            C9   1.350       .  A
N2           C10   1.349       .  A
N3            C8   1.352       .  A
N3            C7   1.350       .  A
N3           H34   1.039       .  S
N4           C11   1.350       .  A
N4           C12   1.353       .  A
C5           C13   1.386       .  A
C5           C21   1.417       .  A
C6           C22   1.417       .  A
C6           C14   1.388       .  A
C7           C15   1.387       .  A
C7           C24   1.410       .  A
C8           C23   1.412       .  A
C8           C16   1.387       .  A
C9           C21   1.410       .  A
C9           C17   1.386       .  A
C10          C24   1.409       .  A
C10          C18   1.386       .  A
C11          C19   1.387       .  A
C11          C22   1.413       .  A
C12          C20   1.385       .  A
C12          C23   1.413       .  A
C13          C14   1.374       .  A
C13          H25   1.082       .  S
C14          H26   1.082       .  S
C15          C16   1.373       .  A
C15          H27   1.082       .  S
C16          H28   1.082       .  S
C17          C18   1.372       .  A
C17          H29   1.082       .  S
C18          H30   1.082       .  S
C19          C20   1.373       .  A
C19          H31   1.082       .  S
C20          H32   1.082       .  S
C21        C2560   1.496       .  S
C22        C2531   1.484       .  S
C23        C2483   1.489       .  S
C24        C2507   1.479       .  S
N35          C40   1.354       .  A
N35          C39   1.354       .  A
N35          H67   1.039       .  S
N36          C43   1.350       .  A
N36          C44   1.351       .  A
N37          C42   1.351       .  A
N37          C41   1.351       .  A
N37          H68   1.039       .  S
N38          C45   1.348       .  A
N38          C46   1.349       .  A
C39          C47   1.387       .  A
C39          C55   1.416       .  A
C40          C56   1.415       .  A
C40          C48   1.387       .  A
C41          C49   1.387       .  A
C41          C58   1.411       .  A
C42          C57   1.410       .  A
C42          C50   1.387       .  A
C43          C55   1.412       .  A
C43          C51   1.387       .  A
C44          C58   1.410       .  A
C44          C52   1.385       .  A
C45          C53   1.387       .  A
C45          C56   1.408       .  A
C46          C54   1.386       .  A
C46          C57   1.407       .  A
C47          C48   1.375       .  A
C47          H59   1.082       .  S
C48          H60   1.082       .  S
C49          C50   1.373       .  A
C49          H61   1.082       .  S
C50          H62   1.082       .  S
C51          C52   1.370       .  A
C51          H63   1.082       .  S
C52          H64   1.082       .  S
C53          C54   1.371       .  A
C53          H65   1.083       .  S
C54          H66   1.083       .  S
C55        C2435   1.487       .  S
C56        C2459   1.485       .  S
C57        C2392   1.478       .  S
C58        C2416   1.482       .  S
O69          C72   1.267       .  A
O69         Cd74   2.497       .  S
C70        C2363   1.484       .  S
C70          O79   1.264       .  A
C70          O75   1.268   1_554  A
O71          C77   1.267   1_556  A
O71         Cd74   2.480       .  S
C72        C2555   1.490       .  S
C72          O80   1.264       .  A
C73        C2339   1.484       .  S
C73          O78   1.266       .  A
C73          O76   1.263       .  A
Cd74         O81   2.442   1_556  S
Cd74         O80   2.444       .  S
Cd74         O79   2.442   1_556  S
Cd74         O75   2.463       .  S
Cd74         O78   2.482       .  S
Cd74         O76   2.424       .  S
C77        C2440   1.481       .  S
C77          O81   1.265       .  A
O82          C85   1.263       .  A
O82         Cd87   2.457       .  S
C83        C2464   1.482       .  S
C83          O92   1.266   1_554  A
C83          O88   1.264       .  A
O84          C90   1.265       .  A
O84         Cd87   2.474       .  S
C85        C2320   1.488       .  S
C85          O93   1.267       .  A
C86        C2296   1.486       .  S
C86          O91   1.266       .  A
C86          O89   1.265   1_554  A
Cd87         O94   2.452       .  S
Cd87         O93   2.475       .  S
Cd87         O92   2.475       .  S
Cd87         O88   2.445   1_556  S
Cd87         O91   2.474   1_556  S
Cd87         O89   2.471       .  S
C90        C2536   1.481       .  S
C90          O94   1.263       .  A
N95         C100   1.350       .  A
N95          C99   1.349       .  A
N95         H127   1.040       .  S
N96         C103   1.349       .  A
N96         C104   1.351       .  A
N97         C102   1.350       .  A
N97         C101   1.352       .  A
N97         H128   1.039       .  S
N98         C105   1.352       .  A
N98         C106   1.349       .  A
C99         C107   1.387       .  A
C99         C115   1.411       .  A
C100        C116   1.408       .  A
C100        C108   1.386       .  A
C101        C109   1.385       .  A
C101        C118   1.410       .  A
C102        C117   1.412       .  A
C102        C110   1.388       .  A
C103        C115   1.413       .  A
C103        C111   1.387       .  A
C104        C118   1.410       .  A
C104        C112   1.385       .  A
C105        C113   1.384       .  A
C105        C116   1.410       .  A
C106        C114   1.388       .  A
C106        C117   1.414       .  A
C107        C108   1.376       .  A
C107        H119   1.082       .  S
C108        H120   1.083       .  S
C109        C110   1.377       .  A
C109        H121   1.082       .  S
C110        H122   1.082       .  S
C111        C112   1.374       .  A
C111        H123   1.082       .  S
C112        H124   1.082       .  S
C113        C114   1.375       .  A
C113        H125   1.082       .  S
C114        H126   1.082       .  S
C115       C2219   1.485       .  S
C116       C2267   1.485       .  S
C117       C2243   1.484       .  S
C118       C2195   1.488       .  S
N129        C134   1.353       .  A
N129        C133   1.351       .  A
N129        H161   1.039       .  S
N130        C137   1.351       .  A
N130        C138   1.351       .  A
N131        C136   1.351       .  A
N131        C135   1.349       .  A
N131        H162   1.040       .  S
N132        C139   1.350       .  A
N132        C140   1.351       .  A
C133        C141   1.386       .  A
C133        C149   1.413       .  A
C134        C150   1.416       .  A
C134        C142   1.387       .  A
C135        C143   1.386       .  A
C135        C152   1.407       .  A
C136        C151   1.412       .  A
C136        C144   1.387       .  A
C137        C149   1.413       .  A
C137        C145   1.387       .  A
C138        C152   1.409       .  A
C138        C146   1.385       .  A
C139        C147   1.388       .  A
C139        C150   1.415       .  A
C140        C148   1.384       .  A
C140        C151   1.411       .  A
C141        C142   1.378       .  A
C141        H153   1.082       .  S
C142        H154   1.082       .  S
C143        C144   1.376       .  A
C143        H155   1.083       .  S
C144        H156   1.082       .  S
C145        C146   1.374       .  A
C145        H157   1.082       .  S
C146        H158   1.082       .  S
C147        C148   1.375       .  A
C147        H159   1.082       .  S
C148        H160   1.082       .  S
C149       C2171   1.489       .  S
C150       C2123   1.496       .  S
C151       C2099   1.490       .  S
C152       C2147   1.481       .  S
O163        C166   1.264       .  A
O163       Cd168   2.444       .  S
C164       C2075   1.486       .  S
C164        O173   1.265       .  A
C164        O169   1.269       .  A
O165        C171   1.267       .  A
O165       Cd168   2.504       .  S
C166       C2176   1.475       .  S
C166        O174   1.265       .  A
C167       C2051   1.489       .  S
C167        O172   1.262       .  A
C167        O170   1.265       .  A
Cd168       O175   2.421       .  S
Cd168       O174   2.461       .  S
Cd168       O173   2.428       .  S
Cd168       O169   2.463       .  S
Cd168       O172   2.451       .  S
Cd168       O170   2.481       .  S
C171       C2272   1.479       .  S
C171        O175   1.260       .  A
O176        C179   1.265       .  A
O176       Cd181   2.448       .  S
C177       C2003   1.475       .  S
C177        O186   1.262       .  A
C177        O182   1.266       .  A
O178        C184   1.267       .  A
O178       Cd181   2.465       .  S
C179       C2224   1.474       .  S
C179        O187   1.266       .  A
C180       C2128   1.488       .  S
C180        O185   1.263   1_655  A
C180        O183   1.269       .  A
Cd181       O188   2.443       .  S
Cd181       O187   2.440       .  S
Cd181       O186   2.408       .  S
Cd181       O182   2.476       .  S
Cd181       O185   2.420       .  S
Cd181       O183   2.500   1_455  S
C184       C2027   1.485       .  S
C184        O188   1.265       .  A
N189        C194   1.352       .  A
N189        C193   1.351       .  A
N189        H221   1.038       .  S
N190        C197   1.352       .  A
N190        C198   1.352       .  A
N191        C196   1.352       .  A
N191        C195   1.352       .  A
N191        H222   1.038       .  S
N192        C199   1.352       .  A
N192        C200   1.350       .  A
C193        C201   1.388       .  A
C193        C209   1.413       .  A
C194        C210   1.411       .  A
C194        C202   1.385       .  A
C195        C203   1.387       .  A
C195        C212   1.414       .  A
C196        C211   1.412       .  A
C196        C204   1.386       .  A
C197        C209   1.415       .  A
C197        C205   1.387       .  A
C198        C212   1.415       .  A
C198        C206   1.387       .  A
C199        C207   1.386       .  A
C199        C210   1.412       .  A
C200        C208   1.387       .  A
C200        C211   1.411       .  A
C201        C202   1.377       .  A
C201        H213   1.082       .  S
C202        H214   1.082       .  S
C203        C204   1.376       .  A
C203        H215   1.082       .  S
C204        H216   1.082       .  S
C205        C206   1.374       .  A
C205        H217   1.082       .  S
C206        H218   1.082       .  S
C207        C208   1.370       .  A
C207        H219   1.082       .  S
C208        H220   1.082       .  S
C209       C1936   1.486       .  S
C210       C1979   1.491       .  S
C211       C1960   1.482       .  S
C212       C1907   1.492       .  S
N223        C228   1.354       .  A
N223        C227   1.353       .  A
N223        H255   1.042       .  S
N224        C231   1.348       .  A
N224        C232   1.349       .  A
N225        C230   1.350       .  A
N225        C229   1.351       .  A
N225        H256   1.041       .  S
N226        C233   1.348       .  A
N226        C234   1.349       .  A
C227        C235   1.389       .  A
C227        C243   1.415       .  A
C228        C244   1.411       .  A
C228        C236   1.385       .  A
C229        C237   1.388       .  A
C229        C246   1.411       .  A
C230        C245   1.408       .  A
C230        C238   1.386       .  A
C231        C243   1.411       .  A
C231        C239   1.387       .  A
C232        C246   1.409       .  A
C232        C240   1.385       .  A
C233        C241   1.386       .  A
C233        C244   1.406       .  A
C234        C242   1.386       .  A
C234        C245   1.407       .  A
C235        C236   1.372       .  A
C235        H247   1.082       .  S
C236        H248   1.082       .  S
C237        C238   1.373       .  A
C237        H249   1.082       .  S
C238        H250   1.082       .  S
C239        C240   1.375       .  A
C239        H251   1.082       .  S
C240        H252   1.082       .  S
C241        C242   1.372       .  A
C241        H253   1.083       .  S
C242        H254   1.082       .  S
C243       C1888   1.486       .  S
C244       C1864   1.483       .  S
C245       C1835   1.480       .  S
C246       C1811   1.483       .  S
O257        C260   1.267       .  A
O257       Cd262   2.476       .  S
C258       C1792   1.491       .  S
C258        O267   1.265       .  A
C258        O263   1.264       .  A
O259        C265   1.264       .  A
O259       Cd262   2.467       .  S
C260       C1984   1.488       .  S
C260        O268   1.266       .  A
C261       C1768   1.489       .  S
C261        O266   1.266       .  A
C261        O264   1.263       .  A
Cd262       O269   2.463       .  S
Cd262       O268   2.448       .  S
Cd262       O267   2.477       .  S
Cd262       O263   2.464       .  S
Cd262       O266   2.480       .  S
Cd262       O264   2.435       .  S
C265       C1883   1.482       .  S
C265        O269   1.263       .  A
O270        C273   1.263       .  A
O270       Cd275   2.434       .  S
C271       C1859   1.479       .  S
C271        O280   1.265       .  A
C271        O276   1.265       .  A
O272        C278   1.264       .  A
O272       Cd275   2.436       .  S
C273       C1739   1.485       .  S
C273        O281   1.266       .  A
C274       C1715   1.480       .  S
C274        O279   1.264       .  A
C274        O277   1.265       .  A
Cd275       O282   2.481       .  S
Cd275       O281   2.469       .  S
Cd275       O280   2.455       .  S
Cd275       O276   2.441       .  S
Cd275       O279   2.437       .  S
Cd275       O277   2.455       .  S
C278       C1931   1.483       .  S
C278        O282   1.265       .  A
N283        C288   1.350       .  A
N283        C287   1.352       .  A
N283        H315   1.039       .  S
N284        C291   1.353       .  A
N284        C292   1.351       .  A
N285        C290   1.355       .  A
N285        C289   1.352       .  A
N285        H316   1.037       .  S
N286        C293   1.349       .  A
N286        C294   1.350       .  A
C287        C295   1.387       .  A
C287        C303   1.412       .  A
C288        C304   1.409       .  A
C288        C296   1.386       .  A
C289        C297   1.389       .  A
C289        C306   1.418       .  A
C290        C305   1.415       .  A
C290        C298   1.386       .  A
C291        C303   1.416       .  A
C291        C299   1.385       .  A
C292        C306   1.417       .  A
C292        C300   1.387       .  A
C293        C301   1.386       .  A
C293        C304   1.410       .  A
C294        C302   1.386       .  A
C294        C305   1.411       .  A
C295        C296   1.374       .  A
C295        H307   1.082       .  S
C296        H308   1.082       .  S
C297        C298   1.376       .  A
C297        H309   1.082       .  S
C298        H310   1.082       .  S
C299        C300   1.375       .  A
C299        H311   1.082       .  S
C300        H312   1.082       .  S
C301        C302   1.373       .  A
C301        H313   1.082       .  S
C302        H314   1.082       .  S
C303       C1667   1.494       .  S
C304       C1691   1.482       .  S
C305       C2315   1.488       .  S
C306       C1643   1.486       .  S
N317        C322   1.354       .  A
N317        C321   1.351       .  A
N317        H349   1.040       .  S
N318        C325   1.350       .  A
N318        C326   1.351       .  A
N319        C324   1.350       .  A
N319        C323   1.352       .  A
N319        H350   1.039       .  S
N320        C327   1.350       .  A
N320        C328   1.349       .  A
C321        C329   1.388       .  A
C321        C337   1.414       .  A
C322        C338   1.413       .  A
C322        C330   1.386       .  A
C323        C331   1.386       .  A
C323        C340   1.411       .  A
C324        C339   1.412       .  A
C324        C332   1.388       .  A
C325        C337   1.412       .  A
C325        C333   1.386       .  A
C326        C340   1.412       .  A
C326        C334   1.386       .  A
C327        C335   1.385       .  A
C327        C338   1.408       .  A
C328        C336   1.387       .  A
C328        C339   1.410       .  A
C329        C330   1.375       .  A
C329        H341   1.082       .  S
C330        H342   1.082       .  S
C331        C332   1.375       .  A
C331        H343   1.082       .  S
C332        H344   1.082       .  S
C333        C334   1.374       .  A
C333        H345   1.082       .  S
C334        H346   1.082       .  S
C335        C336   1.372       .  A
C335        H347   1.082       .  S
C336        H348   1.082       .  S
C337       C1619   1.485       .  S
C338       C1595   1.489       .  S
C339       C1576   1.482       .  S
C340       C1787   1.486       .  S
O351        C354   1.267       .  A
O351       Cd356   2.500       .  S
C352       C1696   1.482       .  S
C352        O361   1.268       .  A
C352        O357   1.265       .  A
O353        C359   1.264       .  A
O353       Cd356   2.465       .  S
C354       C1547   1.488       .  S
C354        O362   1.260       .  A
C355       C2488   1.489       .  S
C355        O360   1.266       .  A
C355        O358   1.265       .  A
Cd356       O363   2.460       .  S
Cd356       O362   2.428       .  S
Cd356       O361   2.479       .  S
Cd356       O357   2.437       .  S
Cd356       O360   2.457       .  S
Cd356       O358   2.464       .  S
C359       C1600   1.486       .  S
C359        O363   1.263       .  A
O364        C367   1.266       .  A
O364       Cd369   2.480       .  S
C365       C1816   1.488       .  S
C365        O374   1.264       .  A
C365        O370   1.265       .  A
O366        C372   1.266       .  A
O366       Cd369   2.485       .  S
C367       C1672   1.475       .  S
C367        O375   1.264       .  A
C368       C1523   1.493       .  S
C368        O373   1.268       .  A
C368        O371   1.266       .  A
Cd369       O376   2.452       .  S
Cd369       O375   2.432       .  S
Cd369       O374   2.460       .  S
Cd369       O370   2.480       .  S
Cd369       O373   2.489       .  S
Cd369       O371   2.456       .  S
C372       C1624   1.483   1_455  S
C372        O376   1.262       .  A
N377        C382   1.354       .  A
N377        C381   1.353       .  A
N377        H409   1.041       .  S
N378        C385   1.350       .  A
N378        C386   1.351       .  A
N379        C384   1.351       .  A
N379        C383   1.352       .  A
N379        H410   1.040       .  S
N380        C387   1.351       .  A
N380        C388   1.349       .  A
C381        C389   1.387       .  A
C381        C397   1.414       .  A
C382        C398   1.414       .  A
C382        C390   1.387       .  A
C383        C391   1.387       .  A
C383        C400   1.412       .  A
C384        C399   1.411       .  A
C384        C392   1.387       .  A
C385        C397   1.411       .  A
C385        C393   1.386       .  A
C386        C400   1.412       .  A
C386        C394   1.386       .  A
C387        C395   1.386       .  A
C387        C398   1.411       .  A
C388        C396   1.387       .  A
C388        C399   1.410       .  A
C389        C390   1.372       .  A
C389        H401   1.082       .  S
C390        H402   1.082       .  S
C391        C392   1.373       .  A
C391        H403   1.082       .  S
C392        H404   1.082       .  S
C393        C394   1.374       .  A
C393        H405   1.082       .  S
C394        H406   1.082       .  S
C395        C396   1.373       .  A
C395        H407   1.082       .  S
C396        H408   1.083       .  S
C397       C1475   1.489       .  S
C398       C1499   1.492       .  S
C399       C1451   1.480       .  S
C400       C1744   1.488       .  S
N411        C416   1.353       .  A
N411        C415   1.353       .  A
N411        H443   1.040       .  S
N412        C419   1.350       .  A
N412        C420   1.350       .  A
N413        C418   1.350       .  A
N413        C417   1.350       .  A
N413        H444   1.041       .  S
N414        C421   1.347       .  A
N414        C422   1.347       .  A
C415        C423   1.387       .  A
C415        C431   1.414       .  A
C416        C432   1.414       .  A
C416        C424   1.387       .  A
C417        C425   1.388       .  A
C417        C434   1.410       .  A
C418        C433   1.406       .  A
C418        C426   1.386       .  A
C419        C431   1.411       .  A
C419        C427   1.386       .  A
C420        C434   1.413       .  A
C420        C428   1.386       .  A
C421        C429   1.386       .  A
C421        C432   1.406       .  A
C422        C430   1.386       .  A
C422        C433   1.405       .  A
C423        C424   1.374       .  A
C423        H435   1.082       .  S
C424        H436   1.082       .  S
C425        C426   1.372       .  A
C425        H437   1.082       .  S
C426        H438   1.082       .  S
C427        C428   1.375       .  A
C427        H439   1.082       .  S
C428        H440   1.082       .  S
C429        C430   1.373       .  A
C429        H441   1.082       .  S
C430        H442   1.083       .  S
C431       C1403   1.487       .  S
C432       C1432   1.482       .  S
C433       C1379   1.474       .  S
C434       C2080   1.487       .  S
O445        C448   1.267       .  A
O445       Cd450   2.445       .  S
C446       C1504   1.487       .  S
C446        O455   1.266       .  A
C446        O451   1.264       .  A
O447        C453   1.267   1_556  A
O447       Cd450   2.467       .  S
C448       C2248   1.474       .  S
C448        O456   1.264       .  A
C449       C1408   1.481       .  S
C449        O454   1.263       .  A
C449        O452   1.265       .  A
Cd450       O457   2.439   1_556  S
Cd450       O456   2.453       .  S
Cd450       O455   2.489   1_556  S
Cd450       O451   2.442   1_556  S
Cd450       O454   2.457       .  S
Cd450       O452   2.491       .  S
C453       C1360   1.485       .  S
C453        O457   1.264       .  A
O458        C461   1.262       .  A
O458       Cd463   2.443       .  S
C459       C1480   1.488       .  S
C459        O468   1.263       .  A
C459        O464   1.268       .  A
O460        C466   1.267       .  A
O460       Cd463   2.469       .  S
C461       C1331   1.488       .  S
C461        O469   1.266       .  A
C462       C1912   1.486       .  S
C462        O467   1.263   1_554  A
C462        O465   1.263       .  A
Cd463       O470   2.415       .  S
Cd463       O469   2.491       .  S
Cd463       O468   2.425   1_556  S
Cd463       O464   2.493   1_556  S
Cd463       O467   2.476       .  S
Cd463       O465   2.447   1_556  S
C466       C1427   1.479       .  S
C466        O470   1.263       .  A
N471        C476   1.354       .  A
N471        C475   1.352       .  A
N471        H503   1.036       .  S
N472        C479   1.350       .  A
N472        C480   1.352       .  A
N473        C478   1.351       .  A
N473        C477   1.352       .  A
N473        H504   1.037       .  S
N474        C481   1.353       .  A
N474        C482   1.352       .  A
C475        C483   1.387       .  A
C475        C491   1.415       .  A
C476        C492   1.418       .  A
C476        C484   1.387       .  A
C477        C485   1.386       .  A
C477        C494   1.414       .  A
C478        C493   1.413       .  A
C478        C486   1.387       .  A
C479        C491   1.412       .  A
C479        C487   1.387       .  A
C480        C494   1.412       .  A
C480        C488   1.386       .  A
C481        C489   1.387       .  A
C481        C492   1.417       .  A
C482        C490   1.385       .  A
C482        C493   1.413       .  A
C483        C484   1.378       .  A
C483        H495   1.083       .  S
C484        H496   1.082       .  S
C485        C486   1.377       .  A
C485        H497   1.082       .  S
C486        H498   1.082       .  S
C487        C488   1.370       .  A
C487        H499   1.082       .  S
C488        H500   1.082       .  S
C489        C490   1.370       .  A
C489        H501   1.082       .  S
C490        H502   1.082       .  S
C491       C1312   1.482       .  S
C492       C1283   1.494       .  S
C493       C2291   1.486       .  S
C494       C1355   1.488       .  S
N505        C510   1.353       .  A
N505        C509   1.349       .  A
N505        H537   1.039       .  S
N506        C513   1.349       .  A
N506        C514   1.351       .  A
N507        C512   1.350       .  A
N507        C511   1.354       .  A
N507        H538   1.037       .  S
N508        C515   1.353       .  A
N508        C516   1.350       .  A
C509        C517   1.387       .  A
C509        C525   1.409       .  A
C510        C526   1.413       .  A
C510        C518   1.386       .  A
C511        C519   1.387       .  A
C511        C528   1.416       .  A
C512        C527   1.413       .  A
C512        C520   1.387       .  A
C513        C525   1.411       .  A
C513        C521   1.387       .  A
C514        C528   1.412       .  A
C514        C522   1.386       .  A
C515        C523   1.385       .  A
C515        C526   1.413       .  A
C516        C524   1.387       .  A
C516        C527   1.414       .  A
C517        C518   1.376       .  A
C517        H529   1.082       .  S
C518        H530   1.082       .  S
C519        C520   1.376       .  A
C519        H531   1.082       .  S
C520        H532   1.082       .  S
C521        C522   1.372       .  A
C521        H533   1.082       .  S
C522        H534   1.082       .  S
C523        C524   1.371       .  A
C523        H535   1.082       .  S
C524        H536   1.082       .  S
C525       C1259   1.478       .  S
C526       C1240   1.494       .  S
C527       C1552   1.481       .  S
C528       C2056   1.493       .  S
O539        C542   1.267       .  A
O539       Cd544   2.477       .  S
C540       C1456   1.483       .  S
C540        O549   1.266       .  A
C540        O545   1.267       .  A
O541        C547   1.263       .  A
O541       Cd544   2.476       .  S
C542       C1264   1.482       .  S
C542        O550   1.264       .  A
C543       C2152   1.482       .  S
C543        O548   1.267       .  A
C543        O546   1.263       .  A
Cd544       O551   2.450       .  S
Cd544       O550   2.408       .  S
Cd544       O549   2.420       .  S
Cd544       O545   2.453       .  S
Cd544       O548   2.490       .  S
Cd544       O546   2.403       .  S
C547       C1307   1.479       .  S
C547        O551   1.262       .  A
O552        C555   1.266       .  A
O552       Cd557   2.446       .  S
C553       C1571   1.484       .  S
C553        O562   1.265       .  A
C553        O558   1.267       .  A
O554        C560   1.263       .  A
O554       Cd557   2.401       .  S
C555       C1288   1.483       .  S
C555        O563   1.266       .  A
C556       C1235   1.474   1_545  S
C556        O561   1.267       .  A
C556        O559   1.263       .  A
Cd557       O564   2.482       .  S
Cd557       O563   2.460       .  S
Cd557       O562   2.438       .  S
Cd557       O558   2.450       .  S
Cd557       O561   2.481       .  S
Cd557       O559   2.438       .  S
C560       C2387   1.481       .  S
C560        O564   1.268       .  A
N565        C570   1.353       .  A
N565        C569   1.354       .  A
N565        H597   1.036       .  S
N566        C573   1.353       .  A
N566        C574   1.351       .  A
N567        C572   1.355       .  A
N567        C571   1.353       .  A
N567        H598   1.036       .  S
N568        C575   1.350       .  A
N568        C576   1.352       .  A
C569        C577   1.388       .  A
C569        C585   1.416       .  A
C570        C586   1.416       .  A
C570        C578   1.387       .  A
C571        C579   1.388       .  A
C571        C588   1.417       .  A
C572        C587   1.416       .  A
C572        C580   1.386       .  A
C573        C585   1.414       .  A
C573        C581   1.386       .  A
C574        C588   1.416       .  A
C574        C582   1.388       .  A
C575        C583   1.386       .  A
C575        C586   1.412       .  A
C576        C584   1.386       .  A
C576        C587   1.414       .  A
C577        C578   1.373       .  A
C577        H589   1.082       .  S
C578        H590   1.082       .  S
C579        C580   1.375       .  A
C579        H591   1.082       .  S
C580        H592   1.082       .  S
C581        C582   1.370       .  A
C581        H593   1.083       .  S
C582        H594   1.082       .  S
C583        C584   1.369       .  A
C583        H595   1.082       .  S
C584        H596   1.082       .  S
C585       C1211   1.488       .  S
C586       C1187   1.484       .  S
C587       C1528   1.492       .  S
C588       C2032   1.484       .  S
O599        C602   1.262       .  A
O599       Cd604   2.414   1_554  S
C600       C1216   1.484       .  S
C600        O609   1.267       .  A
C600        O605   1.265       .  A
O601        C607   1.263   1_556  A
O601       Cd604   2.468       .  S
C602       C1139   1.486       .  S
C602        O610   1.267   1_554  A
C603       C2200   1.484       .  S
C603        O608   1.264       .  A
C603        O606   1.267       .  A
Cd604       O611   2.495   1_556  S
Cd604       O610   2.500       .  S
Cd604       O609   2.481       .  S
Cd604       O605   2.449       .  S
Cd604       O608   2.460       .  S
Cd604       O606   2.484       .  S
C607       C1163   1.492       .  S
C607        O611   1.265       .  A
N612        C617   1.354       .  A
N612        C616   1.352       .  A
N612        H644   1.040   1_455  S
N613        C620   1.352       .  A
N613        C621   1.351       .  A
N614        C619   1.353       .  A
N614        C618   1.354       .  A
N614        H645   1.040   1_455  S
N615        C622   1.352   1_455  A
N615        C623   1.352   1_455  A
C616        C624   1.387       .  A
C616        C632   1.413       .  A
C617        C633   1.415       .  A
C617        C625   1.387       .  A
C618        C626   1.387       .  A
C618        C635   1.415       .  A
C619        C634   1.415       .  A
C619        C627   1.387       .  A
C620        C632   1.411       .  A
C620        C628   1.385       .  A
C621        C635   1.413       .  A
C621        C629   1.387       .  A
C622        C630   1.385       .  A
C622        C633   1.413   1_655  A
C623        C631   1.387       .  A
C623        C634   1.415   1_655  A
C624        C625   1.374       .  A
C624        H636   1.083       .  S
C625        H637   1.082       .  S
C626        C627   1.377       .  A
C626        H638   1.082       .  S
C627        H639   1.082       .  S
C628        C629   1.373       .  A
C628        H640   1.082       .  S
C629        H641   1.083       .  S
C630        C631   1.374       .  A
C630        H642   1.082       .  S
C631        H643   1.082       .  S
C632       C1120   1.487       .  S
C633       C1168   1.494       .  S
C634       C1091   1.492       .  S
C635       C1763   1.489       .  S
O646        C649   1.267       .  A
O646       Cd651   2.483   1_554  S
C647       C1648   1.483       .  S
C647        O656   1.264       .  A
C647        O652   1.268       .  A
O648        C654   1.267       .  A
O648       Cd651   2.491       .  S
C649       C1115   1.478       .  S
C649        O657   1.265       .  A
C650       C1955   1.482       .  S
C650        O655   1.267   1_554  A
C650        O653   1.261       .  A
Cd651       O658   2.449       .  S
Cd651       O657   2.436   1_556  S
Cd651       O656   2.431       .  S
Cd651       O652   2.472       .  S
Cd651       O655   2.497       .  S
Cd651       O653   2.416   1_556  S
C654       C1192   1.479       .  S
C654        O658   1.264       .  A
N659        C664   1.354       .  A
N659        C663   1.353       .  A
N659        H691   1.040       .  S
N660        C667   1.349       .  A
N660        C668   1.351       .  A
N661        C666   1.351       .  A
N661        C665   1.351       .  A
N661        H692   1.040       .  S
N662        C669   1.349       .  A
N662        C670   1.349       .  A
C663        C671   1.387       .  A
C663        C679   1.414       .  A
C664        C680   1.415       .  A
C664        C672   1.387       .  A
C665        C673   1.386       .  A
C665        C682   1.409       .  A
C666        C681   1.411       .  A
C666        C674   1.388       .  A
C667        C679   1.410       .  A
C667        C675   1.387   1_565  A
C668        C682   1.409       .  A
C668        C676   1.385   1_565  A
C669        C677   1.386       .  A
C669        C680   1.410       .  A
C670        C678   1.385       .  A
C670        C681   1.409       .  A
C671        C672   1.377       .  A
C671        H683   1.082       .  S
C672        H684   1.082       .  S
C673        C674   1.374       .  A
C673        H685   1.083       .  S
C674        H686   1.082       .  S
C675        C676   1.372       .  A
C675        H687   1.082       .  S
C676        H688   1.082       .  S
C677        C678   1.374       .  A
C677        H689   1.082       .  S
C678        H690   1.082       .  S
C679       C1043   1.484       .  S
C680       C1067   1.488       .  S
C681       C1144   1.482       .  S
C682       C2368   1.484       .  S
N693        C698   1.353       .  A
N693        C697   1.355       .  A
N693        H725   1.037       .  S
N694        C701   1.350       .  A
N694        C702   1.350       .  A
N695        C700   1.349       .  A
N695        C699   1.350       .  A
N695        H726   1.037       .  S
N696        C703   1.352       .  A
N696        C704   1.353       .  A
C697        C705   1.385       .  A
C697        C713   1.416       .  A
C698        C714   1.418       .  A
C698        C706   1.387       .  A
C699        C707   1.387       .  A
C699        C716   1.408       .  A
C700        C715   1.409       .  A
C700        C708   1.387       .  A
C701        C713   1.412       .  A
C701        C709   1.388       .  A
C702        C716   1.409       .  A
C702        C710   1.385       .  A
C703        C711   1.388       .  A
C703        C714   1.417       .  A
C704        C712   1.385       .  A
C704        C715   1.412       .  A
C705        C706   1.378       .  A
C705        H717   1.082       .  S
C706        H718   1.082       .  S
C707        C708   1.373       .  A
C707        H719   1.082       .  S
C708        H720   1.083       .  S
C709        C710   1.369       .  A
C709        H721   1.082       .  S
C710        H722   1.082       .  S
C711        C712   1.371       .  A
C711        H723   1.082       .  S
C712        H724   1.082       .  S
C713       C1019   1.488       .  S
C714        C995   1.493       .  S
C715       C2008   1.484       .  S
C716        C971   1.478       .  S
O727        C730   1.267   1_455  A
O727       Cd732   2.470       .  S
C728       C1072   1.491       .  S
C728        O737   1.263       .  A
C728        O733   1.264       .  A
O729        C735   1.265       .  A
O729       Cd732   2.463       .  S
C730       C2104   1.485       .  S
C730        O738   1.265       .  A
C731       C1096   1.491       .  S
C731        O736   1.267       .  A
C731        O734   1.263       .  A
Cd732       O739   2.481       .  S
Cd732       O738   2.470   1_455  S
Cd732       O737   2.468       .  S
Cd732       O733   2.490       .  S
Cd732       O736   2.472       .  S
Cd732       O734   2.472       .  S
C735       C1000   1.491       .  S
C735        O739   1.267       .  A
O740        C743   1.264       .  A
O740       Cd745   2.437       .  S
C741       C1048   1.478       .  S
C741        O750   1.264       .  A
C741        O746   1.265       .  A
O742        C748   1.268       .  A
O742       Cd745   2.500       .  S
C743        C952   1.486       .  S
C743        O751   1.269       .  A
C744       C1024   1.492       .  S
C744        O749   1.263       .  A
C744        O747   1.267       .  A
Cd745       O752   2.440       .  S
Cd745       O751   2.469       .  S
Cd745       O750   2.451       .  S
Cd745       O746   2.443       .  S
Cd745       O749   2.463       .  S
Cd745       O747   2.498       .  S
C748       C2411   1.489       .  S
C748        O752   1.260       .  A
N753        C758   1.351       .  A
N753        C757   1.350       .  A
N753        H785   1.031       .  S
N754        C761   1.350       .  A
N754        C762   1.352       .  A
N755        C760   1.351       .  A
N755        C759   1.351       .  A
N755        H786   1.030       .  S
N756        C763   1.350       .  A
N756        C764   1.349       .  A
C757        C765   1.387       .  A
C757        C773   1.411       .  A
C758        C774   1.409       .  A
C758        C766   1.385       .  A
C759        C767   1.385       .  A
C759        C776   1.409       .  A
C760        C775   1.412       .  A
C760        C768   1.387       .  A
C761        C773   1.412       .  A
C761        C769   1.387       .  A
C762        C776   1.410       .  A
C762        C770   1.385       .  A
C763        C771   1.387       .  A
C763        C774   1.411       .  A
C764        C772   1.387       .  A
C764        C775   1.410       .  A
C765        C766   1.376       .  A
C765        H777   1.083       .  S
C766        H778   1.082       .  S
C767        C768   1.376       .  A
C767        H779   1.082       .  S
C768        H780   1.082       .  S
C769        C770   1.373       .  A
C769        H781   1.082       .  S
C770        H782   1.082       .  S
C771        C772   1.372       .  A
C771        H783   1.082       .  S
C772        H784   1.082       .  S
C773        C904   1.481       .  S
C774        C923   1.482       .  S
C775       C2344   1.479       .  S
C776       C1336   1.483       .  S
N787        C792   1.353       .  A
N787        C791   1.350       .  A
N787        H819   1.036       .  S
N788        C795   1.351       .  A
N788        C796   1.352       .  A
N789        C794   1.351       .  A
N789        C793   1.353       .  A
N789        H820   1.036       .  S
N790        C797   1.351       .  A
N790        C798   1.350       .  A
C791        C799   1.386       .  A
C791        C807   1.411       .  A
C792        C808   1.414       .  A
C792        C800   1.387       .  A
C793        C801   1.387       .  A
C793        C810   1.414       .  A
C794        C809   1.414       .  A
C794        C802   1.387       .  A
C795        C807   1.412       .  A
C795        C803   1.386       .  A
C796        C810   1.414       .  A
C796        C804   1.386       .  A
C797        C805   1.387       .  A
C797        C808   1.414       .  A
C798        C806   1.387       .  A
C798        C809   1.412       .  A
C799        C800   1.376       .  A
C799        H811   1.082       .  S
C800        H812   1.082       .  S
C801        C802   1.375       .  A
C801        H813   1.082       .  S
C802        H814   1.082       .  S
C803        C804   1.372       .  A
C803        H815   1.082       .  S
C804        H816   1.082       .  S
C805        C806   1.372       .  A
C805        H817   1.082       .  S
C806        H818   1.083       .  S
C807        C880   1.479       .  S
C808        C856   1.489       .  S
C809       C1720   1.480       .  S
C810        C947   1.488       .  S
O821        C824   1.266       .  A
O821       Cd826   2.453       .  S
C822        C976   1.481       .  S
C822        O831   1.263       .  A
C822        O827   1.265       .  A
O823        C829   1.264       .  A
O823       Cd826   2.429       .  S
C824        C928   1.482       .  S
C824        O832   1.266       .  A
C825       C2512   1.480       .  S
C825        O830   1.264       .  A
C825        O828   1.266       .  A
Cd826       O833   2.465       .  S
Cd826       O832   2.422       .  S
Cd826       O831   2.408       .  S
Cd826       O827   2.474       .  S
Cd826       O830   2.433       .  S
Cd826       O828   2.464       .  S
C829        C875   1.478       .  S
C829        O833   1.265       .  A
O834        C837   1.267       .  A
O834       Cd839   2.444       .  S
C835        C851   1.486       .  S
C835        O844   1.265       .  A
C835        O840   1.265       .  A
O836        C842   1.265       .  A
O836       Cd839   2.478       .  S
C837       C1384   1.479       .  S
C837        O845   1.266       .  A
C838       C1840   1.477       .  S
C838        O843   1.267       .  A
C838        O841   1.263       .  A
Cd839       O846   2.413       .  S
Cd839       O845   2.410       .  S
Cd839       O844   2.436       .  S
Cd839       O840   2.461       .  S
Cd839       O843   2.466       .  S
Cd839       O841   2.413       .  S
C842        C899   1.472       .  S
C842        O846   1.261       .  A
C847        C848   1.408       .  A
C847        C852   1.395       .  A
C847        C861   1.445       .  S
C848        C849   1.401       .  A
C848        C853   1.481       .  S
C849        C850   1.404       .  A
C849        H868   1.085       .  S
C850        C851   1.419       .  A
C850        C862   1.444       .  S
C851        C852   1.406       .  A
C852        H867   1.084       .  S
C853        C854   1.402       .  A
C853        C858   1.411       .  A
C854        C855   1.401       .  A
C854        H869   1.085       .  S
C855        C856   1.412       .  A
C855        C859   1.443       .  S
C856        C857   1.402       .  A
C857        C858   1.398       .  A
C857        H870   1.085       .  S
C858        C860   1.444       .  S
C859        N863   1.157       .  T
C860        N864   1.157       .  T
C861        N866   1.157       .  T
C862        N865   1.158       .  T
C871        C872   1.407       .  A
C871        C876   1.395       .  A
C871        C885   1.444       .  S
C872        C873   1.400       .  A
C872        C877   1.475       .  S
C873        C874   1.400       .  A
C873        H892   1.085       .  S
C874        C875   1.416       .  A
C874        C886   1.444       .  S
C875        C876   1.405       .  A
C876        H891   1.085       .  S
C877        C878   1.402       .  A
C877        C882   1.410       .  A
C878        C879   1.402       .  A
C878        H893   1.084       .  S
C879        C880   1.409       .  A
C879        C883   1.442       .  S
C880        C881   1.400       .  A
C881        C882   1.393       .  A
C881        H894   1.085       .  S
C882        C884   1.445       .  S
C883        N887   1.157       .  T
C884        N888   1.157       .  T
C885        N890   1.157       .  T
C886        N889   1.157       .  T
C895        C896   1.407       .  A
C895        C900   1.394       .  A
C895        C909   1.445       .  S
C896        C897   1.402       .  A
C896        C901   1.474       .  S
C897        C898   1.401       .  A
C897        H916   1.085       .  S
C898        C899   1.414       .  A
C898        C910   1.444       .  S
C899        C900   1.403       .  A
C900        H915   1.085       .  S
C901        C902   1.402       .  A
C901        C906   1.409       .  A
C902        C903   1.399       .  A
C902        H917   1.085       .  S
C903        C904   1.409       .  A
C903        C907   1.443       .  S
C904        C905   1.401       .  A
C905        C906   1.393       .  A
C905        H918   1.085       .  S
C906        C908   1.444       .  S
C907        N911   1.157       .  T
C908        N912   1.157       .  T
C909        N914   1.157       .  T
C910        N913   1.157       .  T
C919        C920   1.408       .  A
C919        C924   1.398       .  A
C919        C933   1.443       .  S
C920        C921   1.401       .  A
C920        C925   1.473       .  S
C921        C922   1.396       .  A
C921        H940   1.085       .  S
C922        C923   1.411       .  A
C922        C934   1.444       .  S
C923        C924   1.403       .  A
C924        H939   1.085       .  S
C925        C926   1.399       .  A
C925        C930   1.406       .  A
C926        C927   1.400       .  A
C926        H941   1.085       .  S
C927        C928   1.418       .  A
C927        C931   1.444       .  S
C928        C929   1.407       .  A
C929        C930   1.394       .  A
C929        H942   1.084       .  S
C930        C932   1.445       .  S
C931        N935   1.157       .  T
C932        N936   1.157       .  T
C933        N938   1.157       .  T
C934        N937   1.157       .  T
C943        C944   1.413       .  A
C943        C948   1.399       .  A
C943        C957   1.444       .  S
C944        C945   1.405       .  A
C944        C949   1.489       .  S
C945        C946   1.402       .  A
C945        H964   1.085       .  S
C946        C947   1.410       .  A
C946        C958   1.443       .  S
C947        C948   1.401       .  A
C948        H963   1.085       .  S
C949        C950   1.403       .  A
C949        C954   1.411       .  A
C950        C951   1.402       .  A
C950        H965   1.085       .  S
C951        C952   1.417       .  A
C951        C955   1.445       .  S
C952        C953   1.405       .  A
C953        C954   1.399       .  A
C953        H966   1.085       .  S
C954        C956   1.444       .  S
C955        N959   1.158       .  T
C956        N960   1.157       .  T
C957        N962   1.157       .  T
C958        N961   1.157       .  T
C967        C968   1.410       .  A
C967        C972   1.397       .  A
C967        C981   1.444       .  S
C968        C969   1.404       .  A
C968        C973   1.478   1_565  S
C969        C970   1.396       .  A
C969        H988   1.085       .  S
C970        C971   1.407       .  A
C970        C982   1.443       .  S
C971        C972   1.401       .  A
C972        H987   1.085       .  S
C973        C974   1.402       .  A
C973        C978   1.407       .  A
C974        C975   1.400       .  A
C974        H989   1.085   1_545  S
C975        C976   1.416       .  A
C975        C979   1.444       .  S
C976        C977   1.406       .  A
C977        C978   1.393       .  A
C977        H990   1.085       .  S
C978        C980   1.445       .  S
C979        N983   1.157       .  T
C980        N984   1.157       .  T
C981        N986   1.157   1_565  T
C982        N985   1.157       .  T
C991        C992   1.409       .  A
C991        C996   1.396       .  A
C991       C1005   1.444       .  S
C992        C993   1.404       .  A
C992        C997   1.483       .  S
C993        C994   1.405       .  A
C993       H1012   1.084       .  S
C994        C995   1.414       .  A
C994       C1006   1.444       .  S
C995        C996   1.403       .  A
C996       H1011   1.085       .  S
C997        C998   1.400       .  A
C997       C1002   1.408       .  A
C998        C999   1.404       .  A
C998       H1013   1.085       .  S
C999       C1000   1.418       .  A
C999       C1003   1.443       .  S
C1000      C1001   1.408       .  A
C1001      C1002   1.400       .  A
C1001      H1014   1.084       .  S
C1002      C1004   1.445       .  S
C1003      N1007   1.157       .  T
C1004      N1008   1.157       .  T
C1005      N1010   1.157       .  T
C1006      N1009   1.157       .  T
C1015      C1016   1.413       .  A
C1015      C1020   1.399       .  A
C1015      C1029   1.444       .  S
C1016      C1017   1.406       .  A
C1016      C1021   1.490       .  S
C1017      C1018   1.405       .  A
C1017      H1036   1.084       .  S
C1018      C1019   1.410       .  A
C1018      C1030   1.443       .  S
C1019      C1020   1.401       .  A
C1020      H1035   1.085       .  S
C1021      C1022   1.403   1_565  A
C1021      C1026   1.409       .  A
C1022      C1023   1.402       .  A
C1022      H1037   1.085       .  S
C1023      C1024   1.418       .  A
C1023      C1027   1.445       .  S
C1024      C1025   1.407       .  A
C1025      C1026   1.403   1_545  A
C1025      H1038   1.084       .  S
C1026      C1028   1.443       .  S
C1027      N1031   1.158       .  T
C1028      N1032   1.157       .  T
C1029      N1034   1.157       .  T
C1030      N1033   1.157       .  T
C1039      C1040   1.409       .  A
C1039      C1044   1.403       .  A
C1039      C1053   1.443       .  S
C1040      C1041   1.399       .  A
C1040      C1045   1.473       .  S
C1041      C1042   1.392   1_545  A
C1041      H1060   1.085       .  S
C1042      C1043   1.410       .  A
C1042      C1054   1.444       .  S
C1043      C1044   1.405   1_565  A
C1044      H1059   1.084       .  S
C1045      C1046   1.399       .  A
C1045      C1050   1.407       .  A
C1046      C1047   1.394       .  A
C1046      H1061   1.085   1_545  S
C1047      C1048   1.414       .  A
C1047      C1051   1.444       .  S
C1048      C1049   1.409       .  A
C1049      C1050   1.401       .  A
C1049      H1062   1.085       .  S
C1050      C1052   1.444       .  S
C1051      N1055   1.157   1_545  T
C1052      N1056   1.157       .  T
C1053      N1058   1.157       .  T
C1054      N1057   1.157       .  T
C1063      C1064   1.410       .  A
C1063      C1068   1.403       .  A
C1063      C1077   1.443       .  S
C1064      C1065   1.401       .  A
C1064      C1069   1.481       .  S
C1065      C1066   1.398       .  A
C1065      H1084   1.085       .  S
C1066      C1067   1.412       .  A
C1066      C1078   1.444       .  S
C1067      C1068   1.403       .  A
C1068      H1083   1.084       .  S
C1069      C1070   1.400       .  A
C1069      C1074   1.407       .  A
C1070      C1071   1.403       .  A
C1070      H1085   1.085       .  S
C1071      C1072   1.419       .  A
C1071      C1075   1.444       .  S
C1072      C1073   1.409       .  A
C1073      C1074   1.400       .  A
C1073      H1086   1.084       .  S
C1074      C1076   1.445       .  S
C1075      N1079   1.157       .  T
C1076      N1080   1.157       .  T
C1077      N1082   1.157       .  T
C1078      N1081   1.157       .  T
C1087      C1088   1.409       .  A
C1087      C1092   1.399       .  A
C1087      C1101   1.443       .  S
C1088      C1089   1.403   1_455  A
C1088      C1093   1.483       .  S
C1089      C1090   1.404       .  A
C1089      H1108   1.084       .  S
C1090      C1091   1.412   1_655  A
C1090      C1102   1.444       .  S
C1091      C1092   1.403       .  A
C1092      H1107   1.085       .  S
C1093      C1094   1.401       .  A
C1093      C1098   1.407       .  A
C1094      C1095   1.404       .  A
C1094      H1109   1.085   1_455  S
C1095      C1096   1.420       .  A
C1095      C1099   1.444   1_455  S
C1096      C1097   1.407       .  A
C1097      C1098   1.399       .  A
C1097      H1110   1.084       .  S
C1098      C1100   1.443       .  S
C1099      N1103   1.158       .  T
C1100      N1104   1.157       .  T
C1101      N1106   1.157       .  T
C1102      N1105   1.157       .  T
C1111      C1112   1.408       .  A
C1111      C1116   1.398       .  A
C1111      C1125   1.444       .  S
C1112      C1113   1.402       .  A
C1112      C1117   1.481       .  S
C1113      C1114   1.403       .  A
C1113      H1132   1.085       .  S
C1114      C1115   1.414       .  A
C1114      C1126   1.444       .  S
C1115      C1116   1.404       .  A
C1116      H1131   1.085       .  S
C1117      C1118   1.402   1_455  A
C1117      C1122   1.410       .  A
C1118      C1119   1.402       .  A
C1118      H1133   1.084       .  S
C1119      C1120   1.411   1_655  A
C1119      C1123   1.443       .  S
C1120      C1121   1.402       .  A
C1121      C1122   1.399       .  A
C1121      H1134   1.085       .  S
C1122      C1124   1.444       .  S
C1123      N1127   1.157       .  T
C1124      N1128   1.157       .  T
C1125      N1130   1.157       .  T
C1126      N1129   1.157       .  T
C1135      C1136   1.406       .  A
C1135      C1140   1.395       .  A
C1135      C1149   1.445       .  S
C1136      C1137   1.402       .  A
C1136      C1141   1.478       .  S
C1137      C1138   1.403       .  A
C1137      H1156   1.085       .  S
C1138      C1139   1.417       .  A
C1138      C1150   1.443   1_554  S
C1139      C1140   1.408       .  A
C1140      H1155   1.084       .  S
C1141      C1142   1.402       .  A
C1141      C1146   1.410       .  A
C1142      C1143   1.398       .  A
C1142      H1157   1.085       .  S
C1143      C1144   1.410       .  A
C1143      C1147   1.444       .  S
C1144      C1145   1.401       .  A
C1145      C1146   1.399       .  A
C1145      H1158   1.084       .  S
C1146      C1148   1.443       .  S
C1147      N1151   1.157       .  T
C1148      N1152   1.157       .  T
C1149      N1154   1.157       .  T
C1150      N1153   1.157       .  T
C1159      C1160   1.410       .  A
C1159      C1164   1.404       .  A
C1159      C1173   1.444       .  S
C1160      C1161   1.401       .  A
C1160      C1165   1.488       .  S
C1161      C1162   1.402       .  A
C1161      H1180   1.085       .  S
C1162      C1163   1.418       .  A
C1162      C1174   1.444       .  S
C1163      C1164   1.408       .  A
C1164      H1179   1.084       .  S
C1165      C1166   1.405   1_455  A
C1165      C1170   1.411       .  A
C1166      C1167   1.405       .  A
C1166      H1181   1.084       .  S
C1167      C1168   1.413   1_655  A
C1167      C1171   1.444       .  S
C1168      C1169   1.403       .  A
C1169      C1170   1.399       .  A
C1169      H1182   1.085       .  S
C1170      C1172   1.444       .  S
C1171      N1175   1.157       .  T
C1172      N1176   1.157       .  T
C1173      N1178   1.157   1_455  T
C1174      N1177   1.157   1_554  T
C1183      C1184   1.411       .  A
C1183      C1188   1.397       .  A
C1183      C1197   1.444       .  S
C1184      C1185   1.405       .  A
C1184      C1189   1.484       .  S
C1185      C1186   1.401       .  A
C1185      H1204   1.084       .  S
C1186      C1187   1.408       .  A
C1186      C1198   1.443       .  S
C1187      C1188   1.401       .  A
C1188      H1203   1.085       .  S
C1189      C1190   1.403       .  A
C1189      C1194   1.410       .  A
C1190      C1191   1.401       .  A
C1190      H1205   1.085       .  S
C1191      C1192   1.413       .  A
C1191      C1195   1.445       .  S
C1192      C1193   1.404       .  A
C1193      C1194   1.401       .  A
C1193      H1206   1.085       .  S
C1194      C1196   1.444       .  S
C1195      N1199   1.157       .  T
C1196      N1200   1.157       .  T
C1197      N1202   1.157       .  T
C1198      N1201   1.157       .  T
C1207      C1208   1.411       .  A
C1207      C1212   1.404       .  A
C1207      C1221   1.443       .  S
C1208      C1209   1.402       .  A
C1208      C1213   1.483       .  S
C1209      C1210   1.396       .  A
C1209      H1228   1.085       .  S
C1210      C1211   1.409       .  A
C1210      C1222   1.444       .  S
C1211      C1212   1.403       .  A
C1212      H1227   1.084       .  S
C1213      C1214   1.401       .  A
C1213      C1218   1.410       .  A
C1214      C1215   1.399       .  A
C1214      H1229   1.085       .  S
C1215      C1216   1.415       .  A
C1215      C1219   1.444       .  S
C1216      C1217   1.407       .  A
C1217      C1218   1.402       .  A
C1217      H1230   1.085       .  S
C1218      C1220   1.444       .  S
C1219      N1223   1.157       .  T
C1220      N1224   1.157       .  T
C1221      N1226   1.157       .  T
C1222      N1225   1.157       .  T
C1231      C1232   1.411       .  A
C1231      C1236   1.400   1_565  A
C1231      C1245   1.444       .  S
C1232      C1233   1.403       .  A
C1232      C1237   1.483       .  S
C1233      C1234   1.400       .  A
C1233      H1252   1.085       .  S
C1234      C1235   1.410       .  A
C1234      C1246   1.444       .  S
C1235      C1236   1.403   1_565  A
C1236      H1251   1.085       .  S
C1237      C1238   1.403       .  A
C1237      C1242   1.410       .  A
C1238      C1239   1.404       .  A
C1238      H1253   1.084       .  S
C1239      C1240   1.414       .  A
C1239      C1243   1.443       .  S
C1240      C1241   1.403       .  A
C1241      C1242   1.396       .  A
C1241      H1254   1.085       .  S
C1242      C1244   1.444       .  S
C1243      N1247   1.157       .  T
C1244      N1248   1.157       .  T
C1245      N1250   1.157   1_565  T
C1246      N1249   1.157       .  T
C1255      C1256   1.408       .  A
C1255      C1260   1.397       .  A
C1255      C1269   1.443       .  S
C1256      C1257   1.402       .  A
C1256      C1261   1.474       .  S
C1257      C1258   1.395       .  A
C1257      H1276   1.085       .  S
C1258      C1259   1.410       .  A
C1258      C1270   1.445       .  S
C1259      C1260   1.401       .  A
C1260      H1275   1.085       .  S
C1261      C1262   1.401       .  A
C1261      C1266   1.406       .  A
C1262      C1263   1.402       .  A
C1262      H1277   1.085       .  S
C1263      C1264   1.417       .  A
C1263      C1267   1.444       .  S
C1264      C1265   1.406       .  A
C1265      C1266   1.392       .  A
C1265      H1278   1.085       .  S
C1266      C1268   1.445       .  S
C1267      N1271   1.157       .  T
C1268      N1272   1.157       .  T
C1269      N1274   1.157       .  T
C1270      N1273   1.157       .  T
C1279      C1280   1.409   1_565  A
C1279      C1284   1.397       .  A
C1279      C1293   1.444       .  S
C1280      C1281   1.402       .  A
C1280      C1285   1.482       .  S
C1281      C1282   1.404       .  A
C1281      H1300   1.085       .  S
C1282      C1283   1.414   1_545  A
C1282      C1294   1.443       .  S
C1283      C1284   1.403       .  A
C1284      H1299   1.085       .  S
C1285      C1286   1.401       .  A
C1285      C1290   1.409       .  A
C1286      C1287   1.402       .  A
C1286      H1301   1.085       .  S
C1287      C1288   1.416       .  A
C1287      C1291   1.443       .  S
C1288      C1289   1.406       .  A
C1289      C1290   1.398       .  A
C1289      H1302   1.085       .  S
C1290      C1292   1.445       .  S
C1291      N1295   1.157       .  T
C1292      N1296   1.157   1_545  T
C1293      N1298   1.157       .  T
C1294      N1297   1.157       .  T
C1303      C1304   1.409       .  A
C1303      C1308   1.398       .  A
C1303      C1317   1.445       .  S
C1304      C1305   1.401       .  A
C1304      C1309   1.479       .  S
C1305      C1306   1.401       .  A
C1305      H1324   1.085       .  S
C1306      C1307   1.415       .  A
C1306      C1318   1.444       .  S
C1307      C1308   1.405       .  A
C1308      H1323   1.085       .  S
C1309      C1310   1.403       .  A
C1309      C1314   1.411       .  A
C1310      C1311   1.403       .  A
C1310      H1325   1.084       .  S
C1311      C1312   1.411       .  A
C1311      C1315   1.443       .  S
C1312      C1313   1.399       .  A
C1313      C1314   1.394       .  A
C1313      H1326   1.085       .  S
C1314      C1316   1.445       .  S
C1315      N1319   1.157       .  T
C1316      N1320   1.157       .  T
C1317      N1322   1.157       .  T
C1318      N1321   1.157       .  T
C1327      C1328   1.408       .  A
C1327      C1332   1.398       .  A
C1327      C1341   1.445       .  S
C1328      C1329   1.402       .  A
C1328      C1333   1.483       .  S
C1329      C1330   1.402       .  A
C1329      H1348   1.085       .  S
C1330      C1331   1.417       .  A
C1330      C1342   1.443       .  S
C1331      C1332   1.409       .  A
C1332      H1347   1.084       .  S
C1333      C1334   1.403       .  A
C1333      C1338   1.412       .  A
C1334      C1335   1.398       .  A
C1334      H1349   1.085       .  S
C1335      C1336   1.409       .  A
C1335      C1339   1.444       .  S
C1336      C1337   1.401       .  A
C1337      C1338   1.401       .  A
C1337      H1350   1.084       .  S
C1338      C1340   1.443       .  S
C1339      N1343   1.157       .  T
C1340      N1344   1.157       .  T
C1341      N1346   1.157       .  T
C1342      N1345   1.157       .  T
C1351      C1352   1.409       .  A
C1351      C1356   1.402       .  A
C1351      C1365   1.444       .  S
C1352      C1353   1.401       .  A
C1352      C1357   1.479       .  S
C1353      C1354   1.397       .  A
C1353      H1372   1.085       .  S
C1354      C1355   1.411       .  A
C1354      C1366   1.444       .  S
C1355      C1356   1.405       .  A
C1356      H1371   1.084       .  S
C1357      C1358   1.400       .  A
C1357      C1362   1.407       .  A
C1358      C1359   1.400       .  A
C1358      H1373   1.085       .  S
C1359      C1360   1.418       .  A
C1359      C1363   1.444       .  S
C1360      C1361   1.407       .  A
C1361      C1362   1.400       .  A
C1361      H1374   1.084       .  S
C1362      C1364   1.444       .  S
C1363      N1367   1.157       .  T
C1364      N1368   1.157       .  T
C1365      N1370   1.157       .  T
C1366      N1369   1.157       .  T
C1375      C1376   1.409       .  A
C1375      C1380   1.395       .  A
C1375      C1389   1.444       .  S
C1376      C1377   1.400       .  A
C1376      C1381   1.469       .  S
C1377      C1378   1.395       .  A
C1377      H1396   1.085       .  S
C1378      C1379   1.408       .  A
C1378      C1390   1.444       .  S
C1379      C1380   1.400       .  A
C1380      H1395   1.085       .  S
C1381      C1382   1.399       .  A
C1381      C1386   1.404       .  A
C1382      C1383   1.398       .  A
C1382      H1397   1.085       .  S
C1383      C1384   1.417       .  A
C1383      C1387   1.444       .  S
C1384      C1385   1.407       .  A
C1385      C1386   1.393       .  A
C1385      H1398   1.084       .  S
C1386      C1388   1.445       .  S
C1387      N1391   1.157       .  T
C1388      N1392   1.157       .  T
C1389      N1394   1.157       .  T
C1390      N1393   1.157       .  T
C1399      C1400   1.411       .  A
C1399      C1404   1.397       .  A
C1399      C1413   1.444       .  S
C1400      C1401   1.405       .  A
C1400      C1405   1.485       .  S
C1401      C1402   1.405       .  A
C1401      H1420   1.084       .  S
C1402      C1403   1.410       .  A
C1402      C1414   1.443       .  S
C1403      C1404   1.400       .  A
C1404      H1419   1.085       .  S
C1405      C1406   1.402       .  A
C1405      C1410   1.411       .  A
C1406      C1407   1.400       .  A
C1406      H1421   1.085       .  S
C1407      C1408   1.413       .  A
C1407      C1411   1.444       .  S
C1408      C1409   1.405       .  A
C1409      C1410   1.403       .  A
C1409      H1422   1.085       .  S
C1410      C1412   1.443       .  S
C1411      N1415   1.157       .  T
C1412      N1416   1.157       .  T
C1413      N1418   1.157       .  T
C1414      N1417   1.157       .  T
C1423      C1424   1.405       .  A
C1423      C1428   1.399       .  A
C1423      C1437   1.443       .  S
C1424      C1425   1.399       .  A
C1424      C1429   1.473       .  S
C1425      C1426   1.397       .  A
C1425      H1444   1.085       .  S
C1426      C1427   1.417       .  A
C1426      C1438   1.445       .  S
C1427      C1428   1.407       .  A
C1428      H1443   1.084       .  S
C1429      C1430   1.400       .  A
C1429      C1434   1.409       .  A
C1430      C1431   1.399       .  A
C1430      H1445   1.084       .  S
C1431      C1432   1.409       .  A
C1431      C1435   1.443       .  S
C1432      C1433   1.402       .  A
C1433      C1434   1.396       .  A
C1433      H1446   1.085       .  S
C1434      C1436   1.445       .  S
C1435      N1439   1.157       .  T
C1436      N1440   1.157       .  T
C1437      N1442   1.157       .  T
C1438      N1441   1.158       .  T
C1447      C1448   1.410       .  A
C1447      C1452   1.397       .  A
C1447      C1461   1.444       .  S
C1448      C1449   1.404       .  A
C1448      C1453   1.478       .  S
C1449      C1450   1.398       .  A
C1449      H1468   1.085       .  S
C1450      C1451   1.408       .  A
C1450      C1462   1.443       .  S
C1451      C1452   1.401       .  A
C1452      H1467   1.085       .  S
C1453      C1454   1.402       .  A
C1453      C1458   1.407       .  A
C1454      C1455   1.400       .  A
C1454      H1469   1.085       .  S
C1455      C1456   1.417       .  A
C1455      C1459   1.444       .  S
C1456      C1457   1.406       .  A
C1457      C1458   1.395       .  A
C1457      H1470   1.084       .  S
C1458      C1460   1.445       .  S
C1459      N1463   1.157       .  T
C1460      N1464   1.157       .  T
C1461      N1466   1.157       .  T
C1462      N1465   1.157       .  T
C1471      C1472   1.409       .  A
C1471      C1476   1.402       .  A
C1471      C1485   1.443       .  S
C1472      C1473   1.400       .  A
C1472      C1477   1.478       .  S
C1473      C1474   1.396       .  A
C1473      H1492   1.085       .  S
C1474      C1475   1.411       .  A
C1474      C1486   1.443       .  S
C1475      C1476   1.405       .  A
C1476      H1491   1.085       .  S
C1477      C1478   1.401       .  A
C1477      C1482   1.406       .  A
C1478      C1479   1.403       .  A
C1478      H1493   1.085       .  S
C1479      C1480   1.417       .  A
C1479      C1483   1.443       .  S
C1480      C1481   1.409       .  A
C1481      C1482   1.397       .  A
C1481      H1494   1.085       .  S
C1482      C1484   1.445       .  S
C1483      N1487   1.157       .  T
C1484      N1488   1.157       .  T
C1485      N1490   1.157       .  T
C1486      N1489   1.157       .  T
C1495      C1496   1.411       .  A
C1495      C1500   1.403       .  A
C1495      C1509   1.443       .  S
C1496      C1497   1.403       .  A
C1496      C1501   1.486       .  S
C1497      C1498   1.397       .  A
C1497      H1516   1.085       .  S
C1498      C1499   1.411       .  A
C1498      C1510   1.444       .  S
C1499      C1500   1.406       .  A
C1500      H1515   1.085       .  S
C1501      C1502   1.402       .  A
C1501      C1506   1.410       .  A
C1502      C1503   1.397       .  A
C1502      H1517   1.085       .  S
C1503      C1504   1.416       .  A
C1503      C1507   1.445       .  S
C1504      C1505   1.408       .  A
C1505      C1506   1.404       .  A
C1505      H1518   1.084       .  S
C1506      C1508   1.443       .  S
C1507      N1511   1.157       .  T
C1508      N1512   1.157       .  T
C1509      N1514   1.157       .  T
C1510      N1513   1.157       .  T
C1519      C1520   1.409       .  A
C1519      C1524   1.404       .  A
C1519      C1533   1.444       .  S
C1520      C1521   1.401       .  A
C1520      C1525   1.487       .  S
C1521      C1522   1.403       .  A
C1521      H1540   1.085       .  S
C1522      C1523   1.419       .  A
C1522      C1534   1.444       .  S
C1523      C1524   1.408       .  A
C1524      H1539   1.084       .  S
C1525      C1526   1.403       .  A
C1525      C1530   1.412       .  A
C1526      C1527   1.401       .  A
C1526      H1541   1.085       .  S
C1527      C1528   1.411       .  A
C1527      C1531   1.443       .  S
C1528      C1529   1.403       .  A
C1529      C1530   1.403       .  A
C1529      H1542   1.085       .  S
C1530      C1532   1.443       .  S
C1531      N1535   1.157       .  T
C1532      N1536   1.157       .  T
C1533      N1538   1.157       .  T
C1534      N1537   1.157       .  T
C1543      C1544   1.408       .  A
C1543      C1548   1.402   1_565  A
C1543      C1557   1.444       .  S
C1544      C1545   1.398       .  A
C1544      C1549   1.480       .  S
C1545      C1546   1.397   1_565  A
C1545      H1564   1.085       .  S
C1546      C1547   1.420       .  A
C1546      C1558   1.445       .  S
C1547      C1548   1.408       .  A
C1548      H1563   1.084       .  S
C1549      C1550   1.404       .  A
C1549      C1554   1.411       .  A
C1550      C1551   1.398       .  A
C1550      H1565   1.085       .  S
C1551      C1552   1.408       .  A
C1551      C1555   1.444       .  S
C1552      C1553   1.402       .  A
C1553      C1554   1.398       .  A
C1553      H1566   1.085       .  S
C1554      C1556   1.444       .  S
C1555      N1559   1.157       .  T
C1556      N1560   1.157   1_565  T
C1557      N1562   1.157       .  T
C1558      N1561   1.157       .  T
C1567      C1568   1.405       .  A
C1567      C1572   1.397       .  A
C1567      C1581   1.444       .  S
C1568      C1569   1.398       .  A
C1568      C1573   1.473       .  S
C1569      C1570   1.398       .  A
C1569      H1588   1.085       .  S
C1570      C1571   1.419       .  A
C1570      C1582   1.444       .  S
C1571      C1572   1.408       .  A
C1572      H1587   1.084       .  S
C1573      C1574   1.401       .  A
C1573      C1578   1.408       .  A
C1574      C1575   1.399       .  A
C1574      H1589   1.084       .  S
C1575      C1576   1.410       .  A
C1575      C1579   1.444       .  S
C1576      C1577   1.402       .  A
C1577      C1578   1.395       .  A
C1577      H1590   1.085       .  S
C1578      C1580   1.444       .  S
C1579      N1583   1.157       .  T
C1580      N1584   1.157       .  T
C1581      N1586   1.157       .  T
C1582      N1585   1.157       .  T
C1591      C1592   1.410       .  A
C1591      C1596   1.398       .  A
C1591      C1605   1.444       .  S
C1592      C1593   1.403       .  A
C1592      C1597   1.481       .  S
C1593      C1594   1.402       .  A
C1593      H1612   1.085       .  S
C1594      C1595   1.411       .  A
C1594      C1606   1.443       .  S
C1595      C1596   1.403       .  A
C1596      H1611   1.085       .  S
C1597      C1598   1.400       .  A
C1597      C1602   1.409       .  A
C1598      C1599   1.399       .  A
C1598      H1613   1.085       .  S
C1599      C1600   1.417       .  A
C1599      C1603   1.444       .  S
C1600      C1601   1.408       .  A
C1601      C1602   1.400       .  A
C1601      H1614   1.084       .  S
C1602      C1604   1.444       .  S
C1603      N1607   1.157       .  T
C1604      N1608   1.157       .  T
C1605      N1610   1.157       .  T
C1606      N1609   1.157       .  T
C1615      C1616   1.410       .  A
C1615      C1620   1.401       .  A
C1615      C1629   1.443       .  S
C1616      C1617   1.402       .  A
C1616      C1621   1.479       .  S
C1617      C1618   1.396       .  A
C1617      H1636   1.085       .  S
C1618      C1619   1.409       .  A
C1618      C1630   1.444       .  S
C1619      C1620   1.404       .  A
C1620      H1635   1.085       .  S
C1621      C1622   1.401       .  A
C1621      C1626   1.408       .  A
C1622      C1623   1.398       .  A
C1622      H1637   1.085       .  S
C1623      C1624   1.416       .  A
C1623      C1627   1.445       .  S
C1624      C1625   1.406       .  A
C1625      C1626   1.401       .  A
C1625      H1638   1.084       .  S
C1626      C1628   1.443       .  S
C1627      N1631   1.158       .  T
C1628      N1632   1.157       .  T
C1629      N1634   1.157       .  T
C1630      N1633   1.157       .  T
C1639      C1640   1.410       .  A
C1639      C1644   1.399       .  A
C1639      C1653   1.443       .  S
C1640      C1641   1.404       .  A
C1640      C1645   1.482       .  S
C1641      C1642   1.400       .  A
C1641      H1660   1.085       .  S
C1642      C1643   1.410       .  A
C1642      C1654   1.444       .  S
C1643      C1644   1.403       .  A
C1644      H1659   1.085       .  S
C1645      C1646   1.400   1_655  A
C1645      C1650   1.409       .  A
C1646      C1647   1.397       .  A
C1646      H1661   1.085       .  S
C1647      C1648   1.417       .  A
C1647      C1651   1.444       .  S
C1648      C1649   1.407   1_455  A
C1649      C1650   1.401       .  A
C1649      H1662   1.084       .  S
C1650      C1652   1.444       .  S
C1651      N1655   1.157       .  T
C1652      N1656   1.157       .  T
C1653      N1658   1.157       .  T
C1654      N1657   1.157       .  T
C1663      C1664   1.410       .  A
C1663      C1668   1.398       .  A
C1663      C1677   1.445       .  S
C1664      C1665   1.403       .  A
C1664      C1669   1.481   1_655  S
C1665      C1666   1.403       .  A
C1665      H1684   1.084   1_655  S
C1666      C1667   1.412       .  A
C1666      C1678   1.443       .  S
C1667      C1668   1.405       .  A
C1668      H1683   1.085       .  S
C1669      C1670   1.401       .  A
C1669      C1674   1.410       .  A
C1670      C1671   1.397       .  A
C1670      H1685   1.085       .  S
C1671      C1672   1.411       .  A
C1671      C1675   1.445       .  S
C1672      C1673   1.405       .  A
C1673      C1674   1.402       .  A
C1673      H1686   1.085       .  S
C1674      C1676   1.443   1_455  S
C1675      N1679   1.157       .  T
C1676      N1680   1.157       .  T
C1677      N1682   1.157       .  T
C1678      N1681   1.157       .  T
C1687      C1688   1.410       .  A
C1687      C1692   1.397       .  A
C1687      C1701   1.443       .  S
C1688      C1689   1.403       .  A
C1688      C1693   1.479       .  S
C1689      C1690   1.397       .  A
C1689      H1708   1.085       .  S
C1690      C1691   1.410       .  A
C1690      C1702   1.445       .  S
C1691      C1692   1.402       .  A
C1692      H1707   1.085       .  S
C1693      C1694   1.400       .  A
C1693      C1698   1.409       .  A
C1694      C1695   1.397       .  A
C1694      H1709   1.085       .  S
C1695      C1696   1.416       .  A
C1695      C1699   1.444       .  S
C1696      C1697   1.407       .  A
C1697      C1698   1.401       .  A
C1697      H1710   1.084       .  S
C1698      C1700   1.444       .  S
C1699      N1703   1.157       .  T
C1700      N1704   1.157       .  T
C1701      N1706   1.157       .  T
C1702      N1705   1.157       .  T
C1711      C1712   1.407       .  A
C1711      C1716   1.396       .  A
C1711      C1725   1.445       .  S
C1712      C1713   1.400       .  A
C1712      C1717   1.475       .  S
C1713      C1714   1.400       .  A
C1713      H1732   1.085       .  S
C1714      C1715   1.416       .  A
C1714      C1726   1.444       .  S
C1715      C1716   1.406       .  A
C1716      H1731   1.085       .  S
C1717      C1718   1.401       .  A
C1717      C1722   1.411       .  A
C1718      C1719   1.399       .  A
C1718      H1733   1.085       .  S
C1719      C1720   1.409       .  A
C1719      C1723   1.443       .  S
C1720      C1721   1.400       .  A
C1721      C1722   1.396       .  A
C1721      H1734   1.085       .  S
C1722      C1724   1.444       .  S
C1723      N1727   1.157       .  T
C1724      N1728   1.157       .  T
C1725      N1730   1.157       .  T
C1726      N1729   1.157       .  T
C1735      C1736   1.409       .  A
C1735      C1740   1.400       .  A
C1735      C1749   1.444       .  S
C1736      C1737   1.400       .  A
C1736      C1741   1.481       .  S
C1737      C1738   1.397       .  A
C1737      H1756   1.085       .  S
C1738      C1739   1.418       .  A
C1738      C1750   1.444       .  S
C1739      C1740   1.408       .  A
C1740      H1755   1.084       .  S
C1741      C1742   1.402       .  A
C1741      C1746   1.410       .  A
C1742      C1743   1.396       .  A
C1742      H1757   1.085       .  S
C1743      C1744   1.410       .  A
C1743      C1747   1.443       .  S
C1744      C1745   1.405       .  A
C1745      C1746   1.402       .  A
C1745      H1758   1.084       .  S
C1746      C1748   1.444       .  S
C1747      N1751   1.157       .  T
C1748      N1752   1.157       .  T
C1749      N1754   1.157       .  T
C1750      N1753   1.157       .  T
C1759      C1760   1.414       .  A
C1759      C1764   1.402       .  A
C1759      C1773   1.444       .  S
C1760      C1761   1.404       .  A
C1760      C1765   1.488       .  S
C1761      C1762   1.399       .  A
C1761      H1780   1.085       .  S
C1762      C1763   1.410       .  A
C1762      C1774   1.444       .  S
C1763      C1764   1.402       .  A
C1764      H1779   1.085   1_455  S
C1765      C1766   1.401       .  A
C1765      C1770   1.411       .  A
C1766      C1767   1.399       .  A
C1766      H1781   1.085       .  S
C1767      C1768   1.418       .  A
C1767      C1771   1.444       .  S
C1768      C1769   1.408       .  A
C1769      C1770   1.402       .  A
C1769      H1782   1.084       .  S
C1770      C1772   1.444       .  S
C1771      N1775   1.157       .  T
C1772      N1776   1.157       .  T
C1773      N1778   1.157   1_455  T
C1774      N1777   1.157       .  T
C1783      C1784   1.411       .  A
C1783      C1788   1.400       .  A
C1783      C1797   1.443       .  S
C1784      C1785   1.404       .  A
C1784      C1789   1.484       .  S
C1785      C1786   1.401       .  A
C1785      H1804   1.085       .  S
C1786      C1787   1.409       .  A
C1786      C1798   1.443       .  S
C1787      C1788   1.402       .  A
C1788      H1803   1.085       .  S
C1789      C1790   1.400       .  A
C1789      C1794   1.409       .  A
C1790      C1791   1.401   1_655  A
C1790      H1805   1.085       .  S
C1791      C1792   1.419       .  A
C1791      C1795   1.444       .  S
C1792      C1793   1.408       .  A
C1793      C1794   1.401   1_455  A
C1793      H1806   1.084       .  S
C1794      C1796   1.445       .  S
C1795      N1799   1.157       .  T
C1796      N1800   1.157       .  T
C1797      N1802   1.157       .  T
C1798      N1801   1.157       .  T
C1807      C1808   1.411       .  A
C1807      C1812   1.401       .  A
C1807      C1821   1.443       .  S
C1808      C1809   1.402       .  A
C1808      C1813   1.480       .  S
C1809      C1810   1.398       .  A
C1809      H1828   1.085       .  S
C1810      C1811   1.410       .  A
C1810      C1822   1.444       .  S
C1811      C1812   1.401       .  A
C1812      H1827   1.084       .  S
C1813      C1814   1.398       .  A
C1813      C1818   1.409       .  A
C1814      C1815   1.398       .  A
C1814      H1829   1.085       .  S
C1815      C1816   1.417       .  A
C1815      C1819   1.443       .  S
C1816      C1817   1.409       .  A
C1817      C1818   1.402       .  A
C1817      H1830   1.084       .  S
C1818      C1820   1.445       .  S
C1819      N1823   1.157       .  T
C1820      N1824   1.157       .  T
C1821      N1826   1.157       .  T
C1822      N1825   1.157       .  T
C1831      C1832   1.412       .  A
C1831      C1836   1.398       .  A
C1831      C1845   1.444       .  S
C1832      C1833   1.402       .  A
C1832      C1837   1.478       .  S
C1833      C1834   1.396       .  A
C1833      H1852   1.085       .  S
C1834      C1835   1.408       .  A
C1834      C1846   1.444       .  S
C1835      C1836   1.401       .  A
C1836      H1851   1.085       .  S
C1837      C1838   1.400       .  A
C1837      C1842   1.410       .  A
C1838      C1839   1.396       .  A
C1838      H1853   1.085       .  S
C1839      C1840   1.415       .  A
C1839      C1843   1.445       .  S
C1840      C1841   1.405       .  A
C1841      C1842   1.399       .  A
C1841      H1854   1.084       .  S
C1842      C1844   1.444       .  S
C1843      N1847   1.157       .  T
C1844      N1848   1.157       .  T
C1845      N1850   1.157       .  T
C1846      N1849   1.157       .  T
C1855      C1856   1.407       .  A
C1855      C1860   1.400       .  A
C1855      C1869   1.444       .  S
C1856      C1857   1.400       .  A
C1856      C1861   1.477       .  S
C1857      C1858   1.396       .  A
C1857      H1876   1.085       .  S
C1858      C1859   1.414       .  A
C1858      C1870   1.444       .  S
C1859      C1860   1.407       .  A
C1860      H1875   1.085       .  S
C1861      C1862   1.403       .  A
C1861      C1866   1.409       .  A
C1862      C1863   1.400       .  A
C1862      H1877   1.085       .  S
C1863      C1864   1.410       .  A
C1863      C1867   1.443       .  S
C1864      C1865   1.402       .  A
C1865      C1866   1.395       .  A
C1865      H1878   1.085       .  S
C1866      C1868   1.444       .  S
C1867      N1871   1.157       .  T
C1868      N1872   1.157       .  T
C1869      N1874   1.157       .  T
C1870      N1873   1.157       .  T
C1879      C1880   1.409       .  A
C1879      C1884   1.400       .  A
C1879      C1893   1.445       .  S
C1880      C1881   1.399       .  A
C1880      C1885   1.477       .  S
C1881      C1882   1.398       .  A
C1881      H1900   1.085       .  S
C1882      C1883   1.416       .  A
C1882      C1894   1.443       .  S
C1883      C1884   1.407       .  A
C1884      H1899   1.085       .  S
C1885      C1886   1.402       .  A
C1885      C1890   1.409       .  A
C1886      C1887   1.401       .  A
C1886      H1901   1.084       .  S
C1887      C1888   1.412       .  A
C1887      C1891   1.443       .  S
C1888      C1889   1.402       .  A
C1889      C1890   1.394       .  A
C1889      H1902   1.085       .  S
C1890      C1892   1.444       .  S
C1891      N1895   1.157       .  T
C1892      N1896   1.157       .  T
C1893      N1898   1.157       .  T
C1894      N1897   1.157       .  T
C1903      C1904   1.408       .  A
C1903      C1908   1.398       .  A
C1903      C1917   1.444       .  S
C1904      C1905   1.402       .  A
C1904      C1909   1.479       .  S
C1905      C1906   1.402       .  A
C1905      H1924   1.085       .  S
C1906      C1907   1.415       .  A
C1906      C1918   1.444       .  S
C1907      C1908   1.404       .  A
C1908      H1923   1.084       .  S
C1909      C1910   1.401       .  A
C1909      C1914   1.406       .  A
C1910      C1911   1.402       .  A
C1910      H1925   1.085       .  S
C1911      C1912   1.418       .  A
C1911      C1915   1.444   1_554  S
C1912      C1913   1.407       .  A
C1913      C1914   1.397       .  A
C1913      H1926   1.084       .  S
C1914      C1916   1.444       .  S
C1915      N1919   1.157       .  T
C1916      N1920   1.157       .  T
C1917      N1922   1.157       .  T
C1918      N1921   1.157       .  T
C1927      C1928   1.408       .  A
C1927      C1932   1.396       .  A
C1927      C1941   1.445       .  S
C1928      C1929   1.401       .  A
C1928      C1933   1.480       .  S
C1929      C1930   1.403       .  A
C1929      H1948   1.085       .  S
C1930      C1931   1.416       .  A
C1930      C1942   1.444       .  S
C1931      C1932   1.405       .  A
C1932      H1947   1.085       .  S
C1933      C1934   1.403       .  A
C1933      C1938   1.410       .  A
C1934      C1935   1.403       .  A
C1934      H1949   1.084       .  S
C1935      C1936   1.410       .  A
C1935      C1939   1.443       .  S
C1936      C1937   1.402       .  A
C1937      C1938   1.396       .  A
C1937      H1950   1.085       .  S
C1938      C1940   1.444       .  S
C1939      N1943   1.157       .  T
C1940      N1944   1.157       .  T
C1941      N1946   1.157       .  T
C1942      N1945   1.157       .  T
C1951      C1952   1.407       .  A
C1951      C1956   1.402       .  A
C1951      C1965   1.444       .  S
C1952      C1953   1.399       .  A
C1952      C1957   1.477       .  S
C1953      C1954   1.398       .  A
C1953      H1972   1.085       .  S
C1954      C1955   1.417       .  A
C1954      C1966   1.445       .  S
C1955      C1956   1.407       .  A
C1956      H1971   1.084   1_554  S
C1957      C1958   1.400       .  A
C1957      C1962   1.410       .  A
C1958      C1959   1.397       .  A
C1958      H1973   1.085       .  S
C1959      C1960   1.410       .  A
C1959      C1963   1.444       .  S
C1960      C1961   1.402       .  A
C1961      C1962   1.400       .  A
C1961      H1974   1.085       .  S
C1962      C1964   1.444       .  S
C1963      N1967   1.157       .  T
C1964      N1968   1.157       .  T
C1965      N1970   1.157       .  T
C1966      N1969   1.157       .  T
C1975      C1976   1.410       .  A
C1975      C1980   1.399       .  A
C1975      C1989   1.444       .  S
C1976      C1977   1.404       .  A
C1976      C1981   1.485       .  S
C1977      C1978   1.404       .  A
C1977      H1996   1.084       .  S
C1978      C1979   1.411       .  A
C1978      C1990   1.443       .  S
C1979      C1980   1.403       .  A
C1980      H1995   1.085       .  S
C1981      C1982   1.402       .  A
C1981      C1986   1.408       .  A
C1982      C1983   1.401       .  A
C1982      H1997   1.085       .  S
C1983      C1984   1.417       .  A
C1983      C1987   1.445       .  S
C1984      C1985   1.408       .  A
C1985      C1986   1.402       .  A
C1985      H1998   1.084       .  S
C1986      C1988   1.443       .  S
C1987      N1991   1.158       .  T
C1988      N1992   1.157       .  T
C1989      N1994   1.157       .  T
C1990      N1993   1.157       .  T
C1999      C2000   1.409       .  A
C1999      C2004   1.400       .  A
C1999      C2013   1.444       .  S
C2000      C2001   1.398       .  A
C2000      C2005   1.474       .  S
C2001      C2002   1.394       .  A
C2001      H2020   1.085       .  S
C2002      C2003   1.414       .  A
C2002      C2014   1.445       .  S
C2003      C2004   1.405       .  A
C2004      H2019   1.085       .  S
C2005      C2006   1.403       .  A
C2005      C2010   1.407       .  A
C2006      C2007   1.399       .  A
C2006      H2021   1.085       .  S
C2007      C2008   1.409       .  A
C2007      C2011   1.444       .  S
C2008      C2009   1.404       .  A
C2009      C2010   1.397       .  A
C2009      H2022   1.085       .  S
C2010      C2012   1.444       .  S
C2011      N2015   1.157       .  T
C2012      N2016   1.157       .  T
C2013      N2018   1.157       .  T
C2014      N2017   1.157       .  T
C2023      C2024   1.408       .  A
C2023      C2028   1.399       .  A
C2023      C2037   1.445       .  S
C2024      C2025   1.400       .  A
C2024      C2029   1.479       .  S
C2025      C2026   1.400       .  A
C2025      H2044   1.085       .  S
C2026      C2027   1.416       .  A
C2026      C2038   1.443       .  S
C2027      C2028   1.408       .  A
C2028      H2043   1.084       .  S
C2029      C2030   1.402       .  A
C2029      C2034   1.411       .  A
C2030      C2031   1.397       .  A
C2030      H2045   1.085       .  S
C2031      C2032   1.409       .  A
C2031      C2035   1.444       .  S
C2032      C2033   1.402       .  A
C2033      C2034   1.400       .  A
C2033      H2046   1.085       .  S
C2034      C2036   1.444       .  S
C2035      N2039   1.157       .  T
C2036      N2040   1.157       .  T
C2037      N2042   1.157       .  T
C2038      N2041   1.157       .  T
C2047      C2048   1.409       .  A
C2047      C2052   1.402       .  A
C2047      C2061   1.444       .  S
C2048      C2049   1.400       .  A
C2048      C2053   1.483       .  S
C2049      C2050   1.399       .  A
C2049      H2068   1.085       .  S
C2050      C2051   1.418       .  A
C2050      C2062   1.444       .  S
C2051      C2052   1.408       .  A
C2052      H2067   1.084       .  S
C2053      C2054   1.403       .  A
C2053      C2058   1.409       .  A
C2054      C2055   1.400       .  A
C2054      H2069   1.085       .  S
C2055      C2056   1.413       .  A
C2055      C2059   1.444       .  S
C2056      C2057   1.405       .  A
C2057      C2058   1.401       .  A
C2057      H2070   1.085       .  S
C2058      C2060   1.443       .  S
C2059      N2063   1.157       .  T
C2060      N2064   1.157       .  T
C2061      N2066   1.157       .  T
C2062      N2065   1.157       .  T
C2071      C2072   1.406       .  A
C2071      C2076   1.400       .  A
C2071      C2085   1.443       .  S
C2072      C2073   1.398       .  A
C2072      C2077   1.475       .  S
C2073      C2074   1.398       .  A
C2073      H2092   1.085       .  S
C2074      C2075   1.419       .  A
C2074      C2086   1.444       .  S
C2075      C2076   1.408       .  A
C2076      H2091   1.084       .  S
C2077      C2078   1.401       .  A
C2077      C2082   1.408       .  A
C2078      C2079   1.398       .  A
C2078      H2093   1.085       .  S
C2079      C2080   1.411       .  A
C2079      C2083   1.444       .  S
C2080      C2081   1.405       .  A
C2081      C2082   1.399       .  A
C2081      H2094   1.085       .  S
C2082      C2084   1.444       .  S
C2083      N2087   1.157       .  T
C2084      N2088   1.157       .  T
C2085      N2090   1.157       .  T
C2086      N2089   1.157       .  T
C2095      C2096   1.411       .  A
C2095      C2100   1.400       .  A
C2095      C2109   1.443       .  S
C2096      C2097   1.403       .  A
C2096      C2101   1.485       .  S
C2097      C2098   1.401       .  A
C2097      H2116   1.085       .  S
C2098      C2099   1.413       .  A
C2098      C2110   1.444       .  S
C2099      C2100   1.403       .  A
C2100      H2115   1.085       .  S
C2101      C2102   1.403       .  A
C2101      C2106   1.409       .  A
C2102      C2103   1.402       .  A
C2102      H2117   1.085       .  S
C2103      C2104   1.415       .  A
C2103      C2107   1.444       .  S
C2104      C2105   1.406       .  A
C2105      C2106   1.401       .  A
C2105      H2118   1.085   1_655  S
C2106      C2108   1.444       .  S
C2107      N2111   1.157       .  T
C2108      N2112   1.157       .  T
C2109      N2114   1.157       .  T
C2110      N2113   1.157       .  T
C2119      C2120   1.411       .  A
C2119      C2124   1.403       .  A
C2119      C2133   1.444       .  S
C2120      C2121   1.402       .  A
C2120      C2125   1.486       .  S
C2121      C2122   1.399       .  A
C2121      H2140   1.085       .  S
C2122      C2123   1.414       .  A
C2122      C2134   1.444       .  S
C2123      C2124   1.406       .  A
C2124      H2139   1.085       .  S
C2125      C2126   1.400       .  A
C2125      C2130   1.411       .  A
C2126      C2127   1.397       .  A
C2126      H2141   1.085       .  S
C2127      C2128   1.418       .  A
C2127      C2131   1.445       .  S
C2128      C2129   1.407       .  A
C2129      C2130   1.405       .  A
C2129      H2142   1.084       .  S
C2130      C2132   1.443       .  S
C2131      N2135   1.157   1_655  T
C2132      N2136   1.157       .  T
C2133      N2138   1.157       .  T
C2134      N2137   1.157       .  T
C2143      C2144   1.412       .  A
C2143      C2148   1.397       .  A
C2143      C2157   1.444       .  S
C2144      C2145   1.407       .  A
C2144      C2149   1.486       .  S
C2145      C2146   1.398       .  A
C2145      H2164   1.085       .  S
C2146      C2147   1.406       .  A
C2146      C2158   1.443       .  S
C2147      C2148   1.402       .  A
C2148      H2163   1.085       .  S
C2149      C2150   1.406       .  A
C2149      C2154   1.410       .  A
C2150      C2151   1.404       .  A
C2150      H2165   1.085       .  S
C2151      C2152   1.415       .  A
C2151      C2155   1.444       .  S
C2152      C2153   1.405       .  A
C2153      C2154   1.392       .  A
C2153      H2166   1.085       .  S
C2154      C2156   1.445       .  S
C2155      N2159   1.157       .  T
C2156      N2160   1.157       .  T
C2157      N2162   1.157       .  T
C2158      N2161   1.157       .  T
C2167      C2168   1.411       .  A
C2167      C2172   1.395       .  A
C2167      C2181   1.444       .  S
C2168      C2169   1.404       .  A
C2168      C2173   1.483       .  S
C2169      C2170   1.403       .  A
C2169      H2188   1.085       .  S
C2170      C2171   1.412       .  A
C2170      C2182   1.443       .  S
C2171      C2172   1.403       .  A
C2172      H2187   1.085       .  S
C2173      C2174   1.403       .  A
C2173      C2178   1.410       .  A
C2174      C2175   1.400       .  A
C2174      H2189   1.085       .  S
C2175      C2176   1.413       .  A
C2175      C2179   1.445       .  S
C2176      C2177   1.403       .  A
C2177      C2178   1.398       .  A
C2177      H2190   1.085       .  S
C2178      C2180   1.444       .  S
C2179      N2183   1.157       .  T
C2180      N2184   1.157       .  T
C2181      N2186   1.157       .  T
C2182      N2185   1.157       .  T
C2191      C2192   1.415       .  A
C2191      C2196   1.400       .  A
C2191      C2205   1.444       .  S
C2192      C2193   1.406       .  A
C2192      C2197   1.492       .  S
C2193      C2194   1.401       .  A
C2193      H2212   1.084   1_655  S
C2194      C2195   1.410       .  A
C2194      C2206   1.443       .  S
C2195      C2196   1.402       .  A
C2196      H2211   1.085       .  S
C2197      C2198   1.405       .  A
C2197      C2202   1.413   1_655  A
C2198      C2199   1.401       .  A
C2198      H2213   1.085       .  S
C2199      C2200   1.413   1_655  A
C2199      C2203   1.443       .  S
C2200      C2201   1.406       .  A
C2201      C2202   1.402       .  A
C2201      H2214   1.085       .  S
C2202      C2204   1.444       .  S
C2203      N2207   1.157       .  T
C2204      N2208   1.157       .  T
C2205      N2210   1.157       .  T
C2206      N2209   1.157       .  T
C2215      C2216   1.409       .  A
C2215      C2220   1.397       .  A
C2215      C2229   1.445       .  S
C2216      C2217   1.401       .  A
C2216      C2221   1.474       .  S
C2217      C2218   1.398       .  A
C2217      H2236   1.085   1_655  S
C2218      C2219   1.411       .  A
C2218      C2230   1.444       .  S
C2219      C2220   1.404       .  A
C2220      H2235   1.085       .  S
C2221      C2222   1.400       .  A
C2221      C2226   1.408       .  A
C2222      C2223   1.399   1_655  A
C2222      H2237   1.085       .  S
C2223      C2224   1.415       .  A
C2223      C2227   1.444       .  S
C2224      C2225   1.403       .  A
C2225      C2226   1.396   1_455  A
C2225      H2238   1.085       .  S
C2226      C2228   1.445       .  S
C2227      N2231   1.157       .  T
C2228      N2232   1.157       .  T
C2229      N2234   1.157       .  T
C2230      N2233   1.157       .  T
C2239      C2240   1.411       .  A
C2239      C2244   1.399       .  A
C2239      C2253   1.444       .  S
C2240      C2241   1.402       .  A
C2240      C2245   1.479       .  S
C2241      C2242   1.395       .  A
C2241      H2260   1.085       .  S
C2242      C2243   1.411       .  A
C2242      C2254   1.444       .  S
C2243      C2244   1.403       .  A
C2244      H2259   1.085       .  S
C2245      C2246   1.401       .  A
C2245      C2250   1.409       .  A
C2246      C2247   1.394       .  A
C2246      H2261   1.085       .  S
C2247      C2248   1.411       .  A
C2247      C2251   1.444       .  S
C2248      C2249   1.406       .  A
C2249      C2250   1.402       .  A
C2249      H2262   1.085       .  S
C2250      C2252   1.444       .  S
C2251      N2255   1.157       .  T
C2252      N2256   1.157       .  T
C2253      N2258   1.157       .  T
C2254      N2257   1.157       .  T
C2263      C2264   1.410       .  A
C2263      C2268   1.398       .  A
C2263      C2277   1.444       .  S
C2264      C2265   1.402       .  A
C2264      C2269   1.479       .  S
C2265      C2266   1.402       .  A
C2265      H2284   1.084       .  S
C2266      C2267   1.410       .  A
C2266      C2278   1.442       .  S
C2267      C2268   1.402       .  A
C2268      H2283   1.085       .  S
C2269      C2270   1.399       .  A
C2269      C2274   1.409       .  A
C2270      C2271   1.397       .  A
C2270      H2285   1.085       .  S
C2271      C2272   1.415       .  A
C2271      C2275   1.445       .  S
C2272      C2273   1.405       .  A
C2273      C2274   1.403       .  A
C2273      H2286   1.085       .  S
C2274      C2276   1.443       .  S
C2275      N2279   1.157       .  T
C2276      N2280   1.157       .  T
C2277      N2282   1.157       .  T
C2278      N2281   1.157       .  T
C2287      C2288   1.414   1_545  A
C2287      C2292   1.400   1_545  A
C2287      C2301   1.444       .  S
C2288      C2289   1.405       .  A
C2288      C2293   1.489       .  S
C2289      C2290   1.401       .  A
C2289      H2308   1.084       .  S
C2290      C2291   1.409       .  A
C2290      C2302   1.444       .  S
C2291      C2292   1.400       .  A
C2292      H2307   1.085   1_565  S
C2293      C2294   1.403   1_565  A
C2293      C2298   1.412       .  A
C2294      C2295   1.401       .  A
C2294      H2309   1.085       .  S
C2295      C2296   1.415       .  A
C2295      C2299   1.444   1_554  S
C2296      C2297   1.406       .  A
C2297      C2298   1.401   1_545  A
C2297      H2310   1.085       .  S
C2298      C2300   1.444       .  S
C2299      N2303   1.157       .  T
C2300      N2304   1.157       .  T
C2301      N2306   1.157       .  T
C2302      N2305   1.157       .  T
C2311      C2312   1.409       .  A
C2311      C2316   1.399       .  A
C2311      C2325   1.443       .  S
C2312      C2313   1.403       .  A
C2312      C2317   1.481       .  S
C2313      C2314   1.402       .  A
C2313      H2332   1.085       .  S
C2314      C2315   1.412       .  A
C2314      C2326   1.443       .  S
C2315      C2316   1.402       .  A
C2316      H2331   1.085       .  S
C2317      C2318   1.399       .  A
C2317      C2322   1.407       .  A
C2318      C2319   1.400       .  A
C2318      H2333   1.085       .  S
C2319      C2320   1.419       .  A
C2319      C2323   1.444       .  S
C2320      C2321   1.408       .  A
C2321      C2322   1.401       .  A
C2321      H2334   1.084       .  S
C2322      C2324   1.443       .  S
C2323      N2327   1.157       .  T
C2324      N2328   1.157       .  T
C2325      N2330   1.157       .  T
C2326      N2329   1.157       .  T
C2335      C2336   1.407       .  A
C2335      C2340   1.396       .  A
C2335      C2349   1.445       .  S
C2336      C2337   1.401       .  A
C2336      C2341   1.478       .  S
C2337      C2338   1.401       .  A
C2337      H2356   1.085       .  S
C2338      C2339   1.416       .  A
C2338      C2350   1.443       .  S
C2339      C2340   1.407       .  A
C2340      H2355   1.085       .  S
C2341      C2342   1.404       .  A
C2341      C2346   1.409       .  A
C2342      C2343   1.398       .  A
C2342      H2357   1.085       .  S
C2343      C2344   1.408       .  A
C2343      C2347   1.444       .  S
C2344      C2345   1.401       .  A
C2345      C2346   1.397       .  A
C2345      H2358   1.085       .  S
C2346      C2348   1.443       .  S
C2347      N2351   1.157       .  T
C2348      N2352   1.157       .  T
C2349      N2354   1.157       .  T
C2350      N2353   1.157       .  T
C2359      C2360   1.414       .  A
C2359      C2364   1.398       .  A
C2359      C2373   1.445   1_545  S
C2360      C2361   1.404       .  A
C2360      C2365   1.491       .  S
C2361      C2362   1.401       .  A
C2361      H2380   1.084       .  S
C2362      C2363   1.416       .  A
C2362      C2374   1.445       .  S
C2363      C2364   1.403       .  A
C2364      H2379   1.085       .  S
C2365      C2366   1.406       .  A
C2365      C2370   1.415       .  A
C2366      C2367   1.397   1_545  A
C2366      H2381   1.085       .  S
C2367      C2368   1.408       .  A
C2367      C2371   1.444       .  S
C2368      C2369   1.401   1_565  A
C2369      C2370   1.400       .  A
C2369      H2382   1.085   1_545  S
C2370      C2372   1.444       .  S
C2371      N2375   1.157       .  T
C2372      N2376   1.157       .  T
C2373      N2378   1.157       .  T
C2374      N2377   1.157       .  T
C2383      C2384   1.404       .  A
C2383      C2388   1.394       .  A
C2383      C2397   1.445       .  S
C2384      C2385   1.400       .  A
C2384      C2389   1.471       .  S
C2385      C2386   1.400       .  A
C2385      H2404   1.085       .  S
C2386      C2387   1.416       .  A
C2386      C2398   1.443       .  S
C2387      C2388   1.408       .  A
C2388      H2403   1.084       .  S
C2389      C2390   1.400       .  A
C2389      C2394   1.408       .  A
C2390      C2391   1.395       .  A
C2390      H2405   1.085       .  S
C2391      C2392   1.410       .  A
C2391      C2395   1.444       .  S
C2392      C2393   1.401       .  A
C2393      C2394   1.398       .  A
C2393      H2406   1.085       .  S
C2394      C2396   1.443       .  S
C2395      N2399   1.157       .  T
C2396      N2400   1.157       .  T
C2397      N2402   1.157       .  T
C2398      N2401   1.157       .  T
C2407      C2408   1.406       .  A
C2407      C2412   1.401       .  A
C2407      C2421   1.444       .  S
C2408      C2409   1.397       .  A
C2408      C2413   1.476       .  S
C2409      C2410   1.399       .  A
C2409      H2428   1.085       .  S
C2410      C2411   1.421       .  A
C2410      C2422   1.445       .  S
C2411      C2412   1.408       .  A
C2412      H2427   1.084       .  S
C2413      C2414   1.401       .  A
C2413      C2418   1.409       .  A
C2414      C2415   1.398       .  A
C2414      H2429   1.085       .  S
C2415      C2416   1.410       .  A
C2415      C2419   1.444       .  S
C2416      C2417   1.401       .  A
C2417      C2418   1.399       .  A
C2417      H2430   1.084       .  S
C2418      C2420   1.444       .  S
C2419      N2423   1.157       .  T
C2420      N2424   1.157       .  T
C2421      N2426   1.157       .  T
C2422      N2425   1.157       .  T
C2431      C2432   1.413       .  A
C2431      C2436   1.403       .  A
C2431      C2445   1.443       .  S
C2432      C2433   1.405       .  A
C2432      C2437   1.488       .  S
C2433      C2434   1.397       .  A
C2433      H2452   1.085       .  S
C2434      C2435   1.409       .  A
C2434      C2446   1.445       .  S
C2435      C2436   1.403       .  A
C2436      H2451   1.084       .  S
C2437      C2438   1.404       .  A
C2437      C2442   1.411       .  A
C2438      C2439   1.402       .  A
C2438      H2453   1.084       .  S
C2439      C2440   1.413       .  A
C2439      C2443   1.443       .  S
C2440      C2441   1.404       .  A
C2441      C2442   1.399       .  A
C2441      H2454   1.085       .  S
C2442      C2444   1.444       .  S
C2443      N2447   1.157   1_554  T
C2444      N2448   1.157       .  T
C2445      N2450   1.157       .  T
C2446      N2449   1.157       .  T
C2455      C2456   1.413       .  A
C2455      C2460   1.402       .  A
C2455      C2469   1.443       .  S
C2456      C2457   1.402       .  A
C2456      C2461   1.484       .  S
C2457      C2458   1.395       .  A
C2457      H2476   1.085       .  S
C2458      C2459   1.410       .  A
C2458      C2470   1.444       .  S
C2459      C2460   1.402       .  A
C2460      H2475   1.084       .  S
C2461      C2462   1.403       .  A
C2461      C2466   1.411       .  A
C2462      C2463   1.399       .  A
C2462      H2477   1.085       .  S
C2463      C2464   1.414       .  A
C2463      C2467   1.445       .  S
C2464      C2465   1.406       .  A
C2465      C2466   1.400       .  A
C2465      H2478   1.085       .  S
C2466      C2468   1.444       .  S
C2467      N2471   1.157       .  T
C2468      N2472   1.157       .  T
C2469      N2474   1.157       .  T
C2470      N2473   1.157       .  T
C2479      C2480   1.412       .  A
C2479      C2484   1.400       .  A
C2479      C2493   1.444       .  S
C2480      C2481   1.403       .  A
C2480      C2485   1.484       .  S
C2481      C2482   1.401       .  A
C2481      H2500   1.085       .  S
C2482      C2483   1.412       .  A
C2482      C2494   1.443       .  S
C2483      C2484   1.402       .  A
C2484      H2499   1.085       .  S
C2485      C2486   1.401       .  A
C2485      C2490   1.408       .  A
C2486      C2487   1.401       .  A
C2486      H2501   1.085       .  S
C2487      C2488   1.418       .  A
C2487      C2491   1.444       .  S
C2488      C2489   1.408       .  A
C2489      C2490   1.400       .  A
C2489      H2502   1.084       .  S
C2490      C2492   1.444       .  S
C2491      N2495   1.157       .  T
C2492      N2496   1.157       .  T
C2493      N2498   1.157       .  T
C2494      N2497   1.157   1_545  T
C2503      C2504   1.409       .  A
C2503      C2508   1.396       .  A
C2503      C2517   1.444       .  S
C2504      C2505   1.403       .  A
C2504      C2509   1.476       .  S
C2505      C2506   1.397       .  A
C2505      H2524   1.085       .  S
C2506      C2507   1.409       .  A
C2506      C2518   1.444       .  S
C2507      C2508   1.401       .  A
C2508      H2523   1.085       .  S
C2509      C2510   1.399       .  A
C2509      C2514   1.408       .  A
C2510      C2511   1.396       .  A
C2510      H2525   1.085       .  S
C2511      C2512   1.416       .  A
C2511      C2515   1.444       .  S
C2512      C2513   1.407       .  A
C2513      C2514   1.400       .  A
C2513      H2526   1.084       .  S
C2514      C2516   1.444       .  S
C2515      N2519   1.157       .  T
C2516      N2520   1.157       .  T
C2517      N2522   1.157       .  T
C2518      N2521   1.157       .  T
C2527      C2528   1.408   1_565  A
C2527      C2532   1.401       .  A
C2527      C2541   1.443       .  S
C2528      C2529   1.402       .  A
C2528      C2533   1.478       .  S
C2529      C2530   1.397       .  A
C2529      H2548   1.085       .  S
C2530      C2531   1.409       .  A
C2530      C2542   1.444       .  S
C2531      C2532   1.403   1_545  A
C2532      H2547   1.084       .  S
C2533      C2534   1.400       .  A
C2533      C2538   1.407       .  A
C2534      C2535   1.400       .  A
C2534      H2549   1.085       .  S
C2535      C2536   1.416       .  A
C2535      C2539   1.444       .  S
C2536      C2537   1.406       .  A
C2537      C2538   1.399       .  A
C2537      H2550   1.085       .  S
C2538      C2540   1.444       .  S
C2539      N2543   1.157       .  T
C2540      N2544   1.157       .  T
C2541      N2546   1.157       .  T
C2542      N2545   1.157       .  T
C2551      C2552   1.410       .  A
C2551      C2556   1.405       .  A
C2551      C2565   1.444       .  S
C2552      C2553   1.400       .  A
C2552      C2557   1.487       .  S
C2553      C2554   1.399       .  A
C2553      H2572   1.085       .  S
C2554      C2555   1.417       .  A
C2554      C2566   1.444       .  S
C2555      C2556   1.409       .  A
C2556      H2571   1.084       .  S
C2557      C2558   1.402       .  A
C2557      C2562   1.411       .  A
C2558      C2559   1.399       .  A
C2558      H2573   1.085       .  S
C2559      C2560   1.414       .  A
C2559      C2563   1.444       .  S
C2560      C2561   1.405       .  A
C2561      C2562   1.404       .  A
C2561      H2574   1.084       .  S
C2562      C2564   1.443       .  S
C2563      N2567   1.157       .  T
C2564      N2568   1.157   1_545  T
C2565      N2570   1.157       .  T
C2566      N2569   1.157       .  T
