geometry optimzed in LAMMPS
_audit_creation_date              2020-12-01 
_audit_creation_method            'lammps2cif' 
_symmetry_space_group_name_H-M    'P1' 
_symmetry_Int_Tables_number       1 
_symmetry_cell_setting            triclinic 
loop_ 
_symmetry_equiv_pos_as_xyz 
  x,y,z 
_cell_length_a                    32.64047042 
_cell_length_b                    32.64053102808454 
_cell_length_c                    32.64237274338171 
_cell_angle_alpha                 89.74060031072342 
_cell_angle_beta                  90.24134492311377 
_cell_angle_gamma                 89.75767967297993 
loop_ 
_atom_site_label 
_atom_site_type_symbol 
_atom_site_fract_x 
_atom_site_fract_y 
_atom_site_fract_z 
_atom_site_charge 
C1          C  0.40967158  0.15534906  0.21663812     0.79800
N2          N  0.39027381  0.14460973  0.25348341    -0.78500
C3          C  0.41231166  0.14862462  0.29041304     0.82300
N4          N  0.45161091  0.15933927  0.28880166    -0.78400
C5          C  0.46947244  0.16812934  0.25348538     0.82400
N6          N  0.44782971  0.16900016  0.21878962    -0.80100
C7          C  0.21277516  0.41823741  0.13900852     0.79800
N8          N  0.24970264  0.39620071  0.13495730    -0.78500
C9          C  0.28655988  0.41559013  0.14566282     0.82300
N10         N  0.28442493  0.45374292  0.15933633    -0.78400
C11         C  0.24972284  0.47538713  0.15850256     0.82400
N12         N  0.21440215  0.45753054  0.14972414    -0.80100
C13         C  0.15558024  0.29498772  0.39731581     0.79800
N14         N  0.19688608  0.29510776  0.39974393    -0.78500
C15         C  0.21919354  0.26011303  0.39986856     0.82300
N16         N  0.19998432  0.22378675  0.39593041    -0.78400
C17         C  0.15889189  0.22114089  0.39360849     0.82400
N18         N  0.13590172  0.25735185  0.39315875    -0.80100
C19         C  0.11557201  0.16548572  0.46004356     0.79800
N20         N  0.10352217  0.20451914  0.46073560    -0.78500
C21         C  0.09429411  0.22288154  0.49567149     0.82300
N22         N  0.09428492  0.20195421  0.03092329    -0.78400
C23         C  0.10955488  0.16424551  0.03395745     0.82400
N24         N  0.12076347  0.14445799  0.49750283    -0.80100
C25         C  0.15348616  0.04975457  0.09687309     0.79800
N26         N  0.15531846  0.04946181  0.05558190    -0.78500
C27         C  0.15396145  0.01431788  0.03394938     0.82300
N28         N  0.14927617  0.47836774  0.05382986    -0.78400
C29         C  0.14788321  0.47602411  0.09492692     0.82400
N30         N  0.14875728  0.01241044  0.11733107    -0.80100
C31         C  0.40112526  0.35694317  0.21357097     0.79800
N32         N  0.40354148  0.31563449  0.21343107    -0.78500
C33         C  0.40352330  0.29329525  0.24840953     0.82300
N34         N  0.39945518  0.31247306  0.28472941    -0.78400
C35         C  0.39717711  0.35356163  0.28740026     0.82400
N36         N  0.39686294  0.37658833  0.25120699    -0.80100
C37         C  0.10053205  0.35906317  0.45908018     0.79800
N38         N  0.05924681  0.35724210  0.45944630    -0.78500
C39         C  0.03765696  0.35855472  0.49461834     0.82300
N40         N  0.05758483  0.36320255  0.03054779    -0.78400
C41         C  0.09869421  0.36468181  0.03281392     0.82400
N42         N  0.12104195  0.36382488  0.49638362    -0.80100
O43         O  0.44593507  0.24565750  0.47093641    -0.72200
O44         O  0.05697534  0.26941261  0.46239408    -0.72400
O45         O  0.51260244  0.20093508  0.46903048    -0.72200
O46         O  0.99201764  0.31456982  0.46410295    -0.72200
O47         O  0.99403642  0.31726302  0.03024227    -0.72200
O48         O  0.51463675  0.20363208  0.03516651    -0.72200
O49         O  0.06069829  0.27255384  0.02834083    -0.72200
O50         O  0.44966076  0.24878253  0.03686993    -0.72300
V51         V  0.00162141  0.25763093  0.46741460     1.35200
V52         V  0.00501713  0.26056911  0.03185654     1.35200
C53         C  0.43069416  0.25639436  0.50443233     0.77100
C54         C  0.07594327  0.26184064  0.49484147     0.77100
C55         C  0.50567536  0.18405972  0.00311627     0.77000
C56         C  0.00097965  0.33413868  0.49615547     0.77000
C57         C  0.34834367  0.47506596  0.10576956     0.79800
N58         N  0.36807925  0.01152731  0.11706715    -0.78500
C59         C  0.34699940  0.04896068  0.11193820     0.82300
N60         N  0.30797595  0.04823568  0.09985956    -0.78400
C61         C  0.28967128  0.01328548  0.09055509     0.82400
N62         N  0.31063652  0.47807138  0.09049178    -0.80100
O63         O  0.24317878  0.04649797  0.05316548    -0.72200
O64         O  0.26684972  0.03771136  0.44213832    -0.72400
O65         O  0.19799513  0.04477238  0.98827879    -0.72200
O66         O  0.31162078  0.03964281  0.50881704    -0.72200
O67         O  0.30880223  0.47350285  0.51090956    -0.72200
O68         O  0.19517660  0.47863347  0.99036620    -0.72200
O69         O  0.26361799  0.47177558  0.44600462    -0.72200
O70         O  0.23994958  0.48055876  0.05703030    -0.72300
V71         V  0.25493323  0.04136289  0.49782954     1.35200
V72         V  0.25186630  0.47692621  0.50134444     1.35200
C73         C  0.25071564  0.01408155  0.07220009     0.77100
C74         C  0.25606765  0.00419142  0.42697259     0.77100
C75         C  0.17837581  0.01275396  0.99727790     0.77000
C76         C  0.32842697  0.00552126  0.50192299     0.77000
C77         C  0.40613778  0.15919763  0.04022397     0.79800
N78         N  0.44742410  0.16096760  0.03984265    -0.78500
C79         C  0.46899931  0.15964325  0.00466398     0.82300
N80         N  0.44905264  0.15500923  0.46874997    -0.78400
C81         C  0.40794057  0.15357736  0.46649437     0.82400
N82         N  0.38560549  0.15446368  0.00292811    -0.80100
C83         C  0.35190043  0.36350036  0.15062206     0.45100
H84         H  0.33176954  0.34508987  0.17091474    -0.03900
C85         C  0.39782470  0.40736855  0.10268496     0.45100
H86         H  0.41698287  0.42603573  0.08172855    -0.03900
C87         C  0.33090355  0.40359551  0.13608196    -0.17600
C88         C  0.39334050  0.37556987  0.17139979    -0.17400
C89         C  0.36394929  0.34059161  0.11136078    -0.17800
C90         C  0.35894356  0.43048154  0.11695618    -0.17700
C91         C  0.42032531  0.39443252  0.14330311    -0.17300
C92         C  0.38248129  0.36659452  0.08255638    -0.17600
C93         C  0.34783070  0.29715822  0.10567935     0.79800
N94         N  0.30673521  0.29452878  0.10337784    -0.78500
C95         C  0.28750689  0.25821017  0.09945714     0.82300
N96         N  0.30980033  0.22320527  0.09957704    -0.78400
C97         C  0.35110927  0.22330823  0.10198449     0.82400
N98         N  0.37080537  0.26093725  0.10612435    -0.80100
C99         C  0.40152250  0.11242337  0.10537211     0.45100
H100        H  0.42019880  0.09147432  0.08622948    -0.03900
C101        C  0.35762069  0.16033867  0.15125906     0.45100
H102        H  0.33919476  0.18061909  0.17137090    -0.03900
C103        C  0.38855927  0.15302019  0.08284945    -0.17600
C104        C  0.36076219  0.09227510  0.12069001    -0.17400
C105        C  0.42461201  0.12668588  0.14426136    -0.17800
C106        C  0.36970263  0.18112494  0.10981196    -0.17700
C107        C  0.33473662  0.12105421  0.13921052    -0.17300
C108        C  0.39770731  0.14580402  0.17228214    -0.17600
C109        C  0.21746881  0.11153649  0.15199289     0.79800
N110        N  0.21734695  0.10910974  0.19329554    -0.78500
C111        C  0.25233723  0.10901007  0.21560397     0.82300
N112        N  0.28866077  0.11299869  0.19639820    -0.78400
C113        C  0.29130631  0.11532686  0.15530694     0.82400
N114        N  0.25509953  0.11573451  0.13231475    -0.80100
C115        C  0.04379434  0.10626682  0.34977360     0.79800
N116        N  0.00647771  0.12677402  0.35445794    -0.78500
C117        C  0.47005086  0.10441764  0.35527412     0.82300
N118        N  0.47232419  0.06330903  0.35381764    -0.78400
C119        C  0.00825955  0.04338555  0.34920147     0.82400
N120        N  0.04343746  0.06497826  0.34795335    -0.80100
O121        O  0.46610696  0.45555362  0.23929537    -0.72200
O122        O  0.47462715  0.06655278  0.26320512    -0.72400
O123        O  0.46786351  0.52055581  0.19422907    -0.72200
O124        O  0.47267590  0.99982045  0.30784371    -0.72200
O125        O  0.03882175  0.99780257  0.30518810    -0.72200
O126        O  0.03400995  0.51855132  0.19157638    -0.72200
O127        O  0.04057627  0.06282939  0.26012513    -0.72200
O128        O  0.03206044  0.45183188  0.23620478    -0.72300
V129        V  0.47111725  0.01088365  0.25115988     1.35200
V130        V  0.03556838  0.00749426  0.24825918     1.35200
C131        C  0.99854452  0.43656866  0.24686691     0.77100
C132        C  0.00814148  0.08180955  0.25252693     0.77100
C133        C  0.99994036  0.51161536  0.17468129     0.77000
C134        C  0.00674781  0.00673935  0.32474163     0.77000
C135        C  0.10949945  0.16470736  0.21186976     0.79800
N136        N  0.10720126  0.20579824  0.21451342    -0.78500
C137        C  0.10314418  0.22500096  0.25082282     0.82300
N138        N  0.10313803  0.20268353  0.28581797    -0.78400
C139        C  0.10556950  0.16137309  0.28570328     0.82400
N140        N  0.10983242  0.14170680  0.24807868    -0.80100
C141        C  0.15971878  0.46932842  0.38735509     0.79800
N142        N  0.13864915  0.00676780  0.38222437    -0.78500
C143        C  0.15841337  0.04322982  0.39347137     0.82300
N144        N  0.19614065  0.04021916  0.40870428    -0.78400
C145        C  0.21709065  0.00499468  0.40864915     0.82400
N146        N  0.19875662  0.47004624  0.39939265    -0.80100
C147        C  0.10892484  0.11092598  0.39658537     0.45100
H148        H  0.08977603  0.09225177  0.41754539    -0.03900
C149        C  0.15482187  0.15481452  0.34864023     0.45100
H150        H  0.17494051  0.17323320  0.32834703    -0.03900
C151        C  0.14779866  0.08781636  0.38228962    -0.17600
C152        C  0.08639994  0.12388983  0.35598725    -0.17400
C153        C  0.12427738  0.15168645  0.41672320    -0.17800
C154        C  0.17582353  0.11470894  0.36315125    -0.17700
C155        C  0.11336876  0.14276035  0.32788109    -0.17300
C156        C  0.14279321  0.17770290  0.38791981    -0.17600
C157        C  0.29393906  0.10003479  0.36019816     0.79600
N158        N  0.25701966  0.12208085  0.36425809    -0.78500
C159        C  0.22015715  0.10271405  0.35353710     0.82300
N160        N  0.22227694  0.06456812  0.33984346    -0.78400
C161        C  0.25696926  0.04290798  0.34067414     0.82400
N162        N  0.29230037  0.06074455  0.34946583    -0.80100
C163        C  0.35870411  0.15363433  0.35515416     0.45100
H164        H  0.33899160  0.17335167  0.33543174    -0.03900
C165        C  0.40495349  0.10738357  0.40141938     0.45100
H166        H  0.42471959  0.08761760  0.42119107    -0.03900
C167        C  0.39957570  0.13959707  0.33399604    -0.17600
C168        C  0.37274773  0.17480590  0.39601051    -0.17400
C169        C  0.33753596  0.11276074  0.36919792    -0.17800
C170        C  0.42674389  0.12086115  0.36200491    -0.17700
C171        C  0.39147351  0.14680733  0.42319743    -0.17300
C172        C  0.36554860  0.08558762  0.38791255    -0.17600
C173        C  0.35714250  0.29220263  0.40591812     0.79800
N174        N  0.36782786  0.25531756  0.38658055    -0.78500
C175        C  0.36379647  0.21842280  0.40868755     0.82300
N176        N  0.35312962  0.22010718  0.44799368    -0.78400
C177        C  0.34436880  0.25545791  0.46579414     0.82400
N178        N  0.34350308  0.29012212  0.44408619    -0.80100
C179        C  0.40011091  0.40345907  0.39761939     0.45100
H180        H  0.42106388  0.42262632  0.41627664    -0.03900
C181        C  0.35219744  0.35752654  0.35376529     0.45100
H182        H  0.33191776  0.33739258  0.33535875    -0.03900
C183        C  0.35948260  0.42593947  0.38468929    -0.17600
C184        C  0.42024993  0.38813122  0.35686393    -0.17400
C185        C  0.38587904  0.36457552  0.42073851    -0.17800
C186        C  0.33139425  0.39895259  0.36584012    -0.17700
C187        C  0.39146189  0.36961736  0.33084798    -0.17300
C188        C  0.36674521  0.33652978  0.39387096    -0.17600
C189        C  0.28921269  0.40674640  0.34724782     0.79800
N190        N  0.28932168  0.40919299  0.30594395    -0.78500
C191        C  0.25432181  0.40930121  0.28364646     0.82300
N192        N  0.21800211  0.40531619  0.30286520    -0.78400
C193        C  0.21537177  0.40296324  0.34395794     0.82400
N194        N  0.25158761  0.40253996  0.36693445    -0.80100
C195        C  0.10517363  0.40586805  0.39395134     0.45100
H196        H  0.08650498  0.42681807  0.41310248    -0.03900
C197        C  0.14905299  0.35795399  0.34804014     0.45100
H198        H  0.16746752  0.33767419  0.32792059    -0.03900
C199        C  0.08206739  0.39160451  0.35507073    -0.17600
C200        C  0.14593666  0.42601306  0.37862007    -0.17400
C201        C  0.11812948  0.36526541  0.41646370    -0.17800
C202        C  0.10896327  0.37249951  0.32703291    -0.17700
C203        C  0.17194790  0.39723342  0.36008032    -0.17300
C204        C  0.13697780  0.33716485  0.38949023    -0.17600
C205        C  0.46291994  0.41207363  0.14955256     0.79800
N206        N  0.00024108  0.39158859  0.14482557    -0.78500
C207        C  0.03666321  0.41395148  0.14405187     0.82300
N208        N  0.03438381  0.45505685  0.14558476    -0.78400
C209        C  0.99844041  0.47496381  0.15022559     0.82400
N210        N  0.46326568  0.45335990  0.15145014    -0.80100
C211        C  0.14797766  0.36467171  0.14412878     0.45100
H212        H  0.16768839  0.34495531  0.16385288    -0.03900
C213        C  0.10172867  0.41092451  0.09785493     0.45100
H214        H  0.08196335  0.43069022  0.07808107    -0.03900
C215        C  0.10713846  0.37877012  0.16530898    -0.17600
C216        C  0.16917402  0.40551091  0.13002148    -0.17400
C217        C  0.13387252  0.34347131  0.10330831    -0.17800
C218        C  0.07996693  0.39750824  0.13730285    -0.17700
C219        C  0.14116679  0.43268877  0.11130262    -0.17300
C220        C  0.11515336  0.37146630  0.07611056    -0.17600
C221        C  0.14281614  0.29985054  0.09063766     0.79800
N222        N  0.13878075  0.26294698  0.11273205    -0.78500
C223        C  0.14947272  0.22606875  0.09338041     0.82300
N224        N  0.16312478  0.22816661  0.05521840    -0.78400
C225        C  0.16226101  0.26284040  0.03352588     0.82400
N226        N  0.15349335  0.29817942  0.05133747    -0.80100
C227        C  0.09439633  0.36974206  0.20889021     0.79800
N228        N  0.05509546  0.35903890  0.21048147    -0.78500
C229        C  0.03721083  0.35024953  0.24578226     0.82300
N230        N  0.05883360  0.34936886  0.28049077    -0.78400
C231        C  0.09699916  0.36299876  0.28266499     0.82400
N232        N  0.11642154  0.37373553  0.24583049    -0.80100
C233        C  0.46358847  0.39681258  0.34311263     0.79800
N234        N  0.00101145  0.39160409  0.36419200    -0.78500
C235        C  0.03749884  0.40284400  0.34445880     0.82300
N236        N  0.03452515  0.41816180  0.30676424    -0.78400
C237        C  0.99931337  0.41815643  0.28579487     0.82400
N238        N  0.46434456  0.40889550  0.30409216    -0.80100
C239        C  0.35324158  0.46851433  0.40234745     0.79800
N240        N  0.35147792  0.46881085  0.44363928    -0.78500
C241        C  0.35285861  0.00395258  0.46526726     0.82300
N242        N  0.35752791  0.03989864  0.44537883    -0.78400
C243        C  0.35885369  0.04224423  0.40427972     0.82400
N244        N  0.35793744  0.00585715  0.38187500    -0.80100
C245        C  0.04309533  0.12141463  0.15620159     0.79800
N246        N  0.00566785  0.12662550  0.13513135    -0.78500
C247        C  0.46917815  0.11544476  0.15489372     0.82300
N248        N  0.47215251  0.10018029  0.19261239    -0.78400
C249        C  0.00737328  0.10017644  0.21356859     0.82400
N250        N  0.04234336  0.10938036  0.19524025    -0.80100
C251        C  0.15446782  0.16072873  0.14550032     0.45100
H252        H  0.17474646  0.18086929  0.16390312    -0.03900
C253        C  0.10656377  0.11477918  0.10165286     0.45100
H254        H  0.08561513  0.09560694  0.08299624    -0.03900
C255        C  0.13989078  0.18173127  0.10541240    -0.17600
C256        C  0.17528903  0.11931757  0.13339892    -0.17400
C257        C  0.11522025  0.14861868  0.16843265    -0.17800
C258        C  0.12077393  0.15367720  0.07854077    -0.17700
C259        C  0.14721184  0.09232007  0.11454881    -0.17300
C260        C  0.08643374  0.13008520  0.14242883    -0.17600
C261        C  0.39116954  0.35278210  0.03923355     0.79800
N262        N  0.40319680  0.31374010  0.03853974    -0.78500
C263        C  0.41237606  0.29537496  0.50360580     0.82300
N264        N  0.41237052  0.31628091  0.46835020    -0.78400
C265        C  0.39711985  0.35399996  0.46531753     0.82400
N266        N  0.38595001  0.37381583  0.50177464    -0.80100
O267        O  0.26383193  0.22655413  0.44275775    -0.72200
O268        O  0.24231747  0.22560331  0.05622615    -0.72400
O269        O  0.19684497  0.22917578  0.98569397    -0.72200
O270        O  0.30766010  0.22309806  0.51263947    -0.72200
O271        O  0.30982534  0.28916143  0.51364163    -0.72200
O272        O  0.19899755  0.29524105  0.98673415    -0.72200
O273        O  0.24283855  0.29178535  0.05660889    -0.72200
O274        O  0.26432832  0.29273973  0.44313426    -0.72300
V275        V  0.25237860  0.22689817  0.49931970     1.35200
V276        V  0.25427736  0.29145660  0.50003903     1.35200
C277        C  0.25603321  0.25989609  0.42461339     0.77100
C278        C  0.25063856  0.25844051  0.07474698     0.77100
C279        C  0.18060797  0.26277643  0.99483424     0.77000
C280        C  0.32605080  0.25555193  0.50450487     0.77000
O281        O  0.28939061  0.99614092  0.30392942    -0.72200
O282        O  0.28332891  0.52322922  0.19313684    -0.72400
O283        O  0.28591687  0.06607431  0.26017946    -0.72200
O284        O  0.28691744  0.45263412  0.23852755    -0.72200
O285        O  0.22073504  0.45219254  0.23902686    -0.72200
O286        O  0.21973061  0.06563444  0.26066140    -0.72200
O287        O  0.21726591  0.52212134  0.19526037    -0.72200
O288        O  0.22332767  0.99506330  0.30606404    -0.72300
V289        V  0.28560573  0.00952655  0.24866073     1.35200
V290        V  0.22104721  0.00874459  0.25053445     1.35200
C291        C  0.25692098  0.00421878  0.32231239     0.77100
C292        C  0.24974405  0.51406764  0.17687851     0.77100
C293        C  0.25256507  0.08420275  0.25240490     0.77000
C294        C  0.25408707  0.43407027  0.24681254     0.77000
O295        O  0.51740180  0.20261602  0.21981799    -0.72200
O296        O  0.99051951  0.31343792  0.21334710    -0.72400
O297        O  0.06037018  0.26961478  0.21710655    -0.72200
O298        O  0.44689375  0.24813490  0.21592674    -0.72200
O299        O  0.44634701  0.24872273  0.28210635    -0.72200
O300        O  0.05981805  0.27023106  0.28328182    -0.72200
O301        O  0.98928063  0.31572961  0.27939902    -0.72200
O302        O  0.51620855  0.20492364  0.28586961    -0.72300
V303        V  0.00380587  0.25816147  0.21733345     1.35200
V304        V  0.00290536  0.26019230  0.28187969     1.35200
C305        C  0.50817516  0.18646125  0.25344380     0.77100
C306        C  0.99851941  0.33189760  0.24578510     0.77100
C307        C  0.07842400  0.26186314  0.25050193     0.77000
C308        C  0.42828490  0.25646816  0.24871386     0.77000
C309        C  0.40967077  0.15535984  0.71664194     0.79800
N310        N  0.39027333  0.14461669  0.75348602    -0.78500
C311        C  0.41231255  0.14862436  0.79041530     0.82300
N312        N  0.45161250  0.15933736  0.78880479    -0.78400
C313        C  0.46947393  0.16813042  0.75348896     0.82400
N314        N  0.44783057  0.16900597  0.71879407    -0.80100
C315        C  0.21277082  0.41825321  0.63900569     0.79800
N316        N  0.24969916  0.39621741  0.63495743    -0.78500
C317        C  0.28655517  0.41560870  0.64566339     0.82300
N318        N  0.28441802  0.45376231  0.65933438    -0.78400
C319        C  0.24971505  0.47540493  0.65849943     0.82400
N320        N  0.21439573  0.45754671  0.64972004    -0.80100
C321        C  0.15558252  0.29498024  0.89731566     0.79800
N322        N  0.19688846  0.29509923  0.89974557    -0.78500
C323        C  0.21919487  0.26010364  0.89987172     0.82300
N324        N  0.19998474  0.22377788  0.89593435    -0.78400
C325        C  0.15889231  0.22113323  0.89361132     0.82400
N326        N  0.13590327  0.25734475  0.89315933    -0.80100
C327        C  0.11557461  0.16547563  0.96004569     0.79800
N328        N  0.10352630  0.20450922  0.96073924    -0.78500
C329        C  0.09429944  0.22287085  0.99567554     0.82300
N330        N  0.09427916  0.20196556  0.53091977    -0.78400
C331        C  0.10954930  0.16425714  0.53395556     0.82400
N332        N  0.12076712  0.14444680  0.99750398    -0.80100
C333        C  0.15348273  0.04976832  0.59687122     0.79800
N334        N  0.15531704  0.04947609  0.55558014    -0.78500
C335        C  0.15396005  0.01433240  0.53394723     0.82300
N336        N  0.14927312  0.47838211  0.55382721    -0.78400
C337        C  0.14787787  0.47603827  0.59492416     0.82400
N338        N  0.14875178  0.01242422  0.61732853    -0.80100
C339        C  0.40112480  0.35694722  0.71356794     0.79800
N340        N  0.40354565  0.31563846  0.71342294    -0.78500
C341        C  0.40352590  0.29329531  0.74839928     0.82300
N342        N  0.39945378  0.31246875  0.78472089    -0.78400
C343        C  0.39717458  0.35355659  0.78739648     0.82400
N344        N  0.39685997  0.37658736  0.75120611    -0.80100
C345        C  0.10053514  0.35905383  0.95908053     0.79800
N346        N  0.05925009  0.35723109  0.95944748    -0.78500
C347        C  0.03766069  0.35854051  0.99461996     0.82300
N348        N  0.05758075  0.36321879  0.53054607    -0.78400
C349        C  0.09869017  0.36469569  0.53281267     0.82400
N350        N  0.12104553  0.36381427  0.99638417    -0.80100
O351        O  0.44594210  0.24564393  0.97092864    -0.72200
O352        O  0.05698238  0.26940153  0.96239693    -0.72400
O353        O  0.51261009  0.20092174  0.96902700    -0.72200
O354        O  0.99202318  0.31455626  0.96410177    -0.72200
O355        O  0.99403458  0.31727839  0.53024325    -0.72200
O356        O  0.51463172  0.20364705  0.53516995    -0.72200
O357        O  0.06069590  0.27256690  0.52833770    -0.72200
O358        O  0.44965806  0.24880016  0.53687734    -0.72300
V359        V  0.00162849  0.25761780  0.96741214     1.35200
V360        V  0.00501443  0.26058443  0.53185866     1.35200
C361        C  0.43069921  0.25637931  0.00442407     0.77100
C362        C  0.07594832  0.26182941  0.99484544     0.77100
C363        C  0.50566900  0.18407406  0.50312043     0.77000
C364        C  0.00098326  0.33412435  0.99615526     0.77000
C365        C  0.34834167  0.47508475  0.60577475     0.79800
N366        N  0.36807517  0.01154621  0.61707503    -0.78500
C367        C  0.34699482  0.04897925  0.61194511     0.82300
N368        N  0.30797249  0.04825416  0.59986349    -0.78400
C369        C  0.28966963  0.01330398  0.59055649     0.82400
N370        N  0.31063588  0.47809008  0.59049351    -0.80100
O371        O  0.24317918  0.04651562  0.55316355    -0.72200
O372        O  0.26684861  0.03770025  0.94213964    -0.72400
O373        O  0.19799576  0.04478652  0.48827737    -0.72200
O374        O  0.31161989  0.03962835  0.00881768    -0.72200
O375        O  0.30880154  0.47348846  0.01090646    -0.72200
O376        O  0.19517781  0.47864746  0.49036673    -0.72200
O377        O  0.26361600  0.47176427  0.94600226    -0.72200
O378        O  0.23994922  0.48057634  0.55703142    -0.72300
V379        V  0.25493242  0.04134855  0.99783099     1.35200
V380        V  0.25186543  0.47691186  0.00134264     1.35200
C381        C  0.25071491  0.01409992  0.57219988     0.77100
C382        C  0.25606602  0.00418141  0.92697210     0.77100
C383        C  0.17837636  0.01276824  0.49727696     0.77000
C384        C  0.32842625  0.00550741  0.00192111     0.77000
C385        C  0.40613048  0.15921421  0.54022706     0.79800
N386        N  0.44741673  0.16098516  0.53984691    -0.78500
C387        C  0.46899334  0.15965752  0.50466931     0.82300
N388        N  0.44905693  0.15499833  0.96874502    -0.78400
C389        C  0.40794468  0.15356683  0.96649133     0.82400
N390        N  0.38559968  0.15447704  0.50293044    -0.80100
C391        C  0.35189438  0.36351652  0.65062452     0.45100
H392        H  0.33176372  0.34510710  0.67091634    -0.03900
C393        C  0.39781984  0.40738433  0.60268769     0.45100
H394        H  0.41697815  0.42605032  0.58173227    -0.03900
C395        C  0.33089996  0.40361425  0.63608696    -0.17600
C396        C  0.39333721  0.37558018  0.67140011    -0.17400
C397        C  0.36394011  0.34060948  0.61136175    -0.17800
C398        C  0.35894093  0.43049986  0.61696239    -0.17700
C399        C  0.42032169  0.39444307  0.64330357    -0.17300
C400        C  0.38247280  0.36661220  0.58255783    -0.17600
C401        C  0.34782199  0.29717618  0.60568043     0.79800
N402        N  0.30672670  0.29454632  0.60337697    -0.78500
C403        C  0.28749913  0.25822738  0.59945640     0.82300
N404        N  0.30979288  0.22322245  0.59957856    -0.78400
C405        C  0.35110181  0.22332596  0.60198833     0.82400
N406        N  0.37079698  0.26095546  0.60612798    -0.80100
C407        C  0.40151603  0.11244101  0.60537599     0.45100
H408        H  0.42019077  0.09149139  0.58623249    -0.03900
C409        C  0.35761685  0.16035698  0.65126499     0.45100
H410        H  0.33919232  0.18063711  0.67137756    -0.03900
C411        C  0.38855193  0.15303763  0.58285319    -0.17600
C412        C  0.36075668  0.09229346  0.62069660    -0.17400
C413        C  0.42460794  0.12670228  0.64426415    -0.17800
C414        C  0.36969650  0.18114286  0.60981647    -0.17700
C415        C  0.33473165  0.12107260  0.63921784    -0.17300
C416        C  0.39770488  0.14582095  0.67228571    -0.17600
C417        C  0.21746298  0.11155094  0.65199446     0.79800
N418        N  0.21733875  0.10912037  0.69329706    -0.78500
C419        C  0.25232767  0.10902101  0.71560775     0.82300
N420        N  0.28865254  0.11301361  0.69640438    -0.78400
C421        C  0.29130034  0.11534502  0.65531322     0.82400
N422        N  0.25509482  0.11575239  0.63231910    -0.80100
C423        C  0.04379414  0.10626075  0.84977476     0.79800
N424        N  0.00647734  0.12676804  0.85445714    -0.78500
C425        C  0.47005082  0.10441119  0.85527434     0.82300
N426        N  0.47232467  0.06330270  0.85382183    -0.78400
C427        C  0.00825981  0.04337925  0.84920630     0.82400
N428        N  0.04343758  0.06497206  0.84795732    -0.80100
O429        O  0.46610519  0.45555367  0.73929796    -0.72200
O430        O  0.47462271  0.06655309  0.76320813    -0.72400
O431        O  0.46785885  0.52055847  0.69423330    -0.72200
O432        O  0.47267458  0.99981780  0.80784683    -0.72200
O433        O  0.03882062  0.99779997  0.80518950    -0.72200
O434        O  0.03400566  0.51855565  0.69157969    -0.72200
O435        O  0.04057162  0.06283079  0.76012837    -0.72200
O436        O  0.03205837  0.45183346  0.73620594    -0.72300
V437        V  0.47111415  0.01088361  0.75116342     1.35200
V438        V  0.03556534  0.00749546  0.74826154     1.35200
C439        C  0.99854295  0.43656904  0.74686815     0.77100
C440        C  0.00813661  0.08180988  0.75252830     0.77100
C441        C  0.99993592  0.51162124  0.67468432     0.77000
C442        C  0.00674721  0.00673487  0.82474450     0.77000
C443        C  0.10949855  0.16471161  0.71187289     0.79800
N444        N  0.10720688  0.20580211  0.71452022    -0.78500
C445        C  0.10314907  0.22500242  0.75083064     0.82300
N446        N  0.10313976  0.20268244  0.78582415    -0.78400
C447        C  0.10556829  0.16137159  0.78570628     0.82400
N448        N  0.10982877  0.14170776  0.74807983    -0.80100
C449        C  0.15971671  0.46932095  0.88735413     0.79800
N450        N  0.13864768  0.00676066  0.88222406    -0.78500
C451        C  0.15841229  0.04322245  0.89347175     0.82300
N452        N  0.19613932  0.04021107  0.90870516    -0.78400
C453        C  0.21708897  0.00498621  0.90864910     0.82400
N454        N  0.19875435  0.47003824  0.89939187    -0.80100
C455        C  0.10892412  0.11091873  0.89658637     0.45100
H456        H  0.08977581  0.09224502  0.91754568    -0.03900
C457        C  0.15482115  0.15480869  0.84864215     0.45100
H458        H  0.17494049  0.17322759  0.82834940    -0.03900
C459        C  0.14779782  0.08780960  0.88229053    -0.17600
C460        C  0.08639940  0.12388399  0.85598840    -0.17400
C461        C  0.12427762  0.15167842  0.91672473    -0.17800
C462        C  0.17582273  0.11470339  0.86315356    -0.17700
C463        C  0.11336803  0.14275522  0.82788258    -0.17300
C464        C  0.14279269  0.17769597  0.88792178    -0.17600
C465        C  0.29393811  0.10002859  0.86020146     0.79600
N466        N  0.25701929  0.12207583  0.86426200    -0.78500
C467        C  0.22015643  0.10270982  0.85354069     0.82300
N468        N  0.22227536  0.06456490  0.83984608    -0.78400
C469        C  0.25696649  0.04290370  0.84067697     0.82400
N470        N  0.29229811  0.06073864  0.84946899    -0.80100
C471        C  0.35870391  0.15362653  0.85515451     0.45100
H472        H  0.33899156  0.17334369  0.83543377    -0.03900
C473        C  0.40495367  0.10737382  0.90141787     0.45100
H474        H  0.42471969  0.08760721  0.92118909    -0.03900
C475        C  0.39957587  0.13959101  0.83399646    -0.17600
C476        C  0.37274868  0.17479673  0.89601015    -0.17400
C477        C  0.33753587  0.11275283  0.86919839    -0.17800
C478        C  0.42674370  0.12085320  0.86200417    -0.17700
C479        C  0.39147512  0.14679757  0.92319602    -0.17300
C480        C  0.36554846  0.08557855  0.88791143    -0.17600
C481        C  0.35714074  0.29219259  0.90591664     0.79800
N482        N  0.36782632  0.25530776  0.88657890    -0.78500
C483        C  0.36379800  0.21841325  0.90868686     0.82300
N484        N  0.35313363  0.22009725  0.94799337    -0.78400
C485        C  0.34437186  0.25544735  0.96579388     0.82400
N486        N  0.34350385  0.29011168  0.94408577    -0.80100
C487        C  0.40011000  0.40344826  0.89761687     0.45100
H488        H  0.42106184  0.42261401  0.91627250    -0.03900
C489        C  0.35219508  0.35751695  0.85376207     0.45100
H490        H  0.33191551  0.33738395  0.83535510    -0.03900
C491        C  0.35948202  0.42592968  0.88468561    -0.17600
C492        C  0.42024889  0.38811982  0.85686162    -0.17400
C493        C  0.38587759  0.36456463  0.92073601    -0.17800
C494        C  0.33139320  0.39894412  0.86583541    -0.17700
C495        C  0.39146032  0.36960742  0.83084562    -0.17300
C496        C  0.36674222  0.33651994  0.89386874    -0.17600
C497        C  0.28921174  0.40674114  0.84724288     0.79800
N498        N  0.28931970  0.40919725  0.80593904    -0.78500
C499        C  0.25431873  0.40930938  0.78364242     0.82300
N500        N  0.21799957  0.40532113  0.80286160    -0.78400
C501        C  0.21537059  0.40295940  0.84395404     0.82400
N502        N  0.25158706  0.40253082  0.86692921    -0.80100
C503        C  0.10517332  0.40585909  0.89395044     0.45100
H504        H  0.08650458  0.42680829  0.91310174    -0.03900
C505        C  0.14905364  0.35794702  0.84803825     0.45100
H506        H  0.16746968  0.33766670  0.82791721    -0.03900
C507        C  0.08206677  0.39159529  0.85506981    -0.17600
C508        C  0.14593533  0.42600562  0.87861821    -0.17400
C509        C  0.11813129  0.36525713  0.91646300    -0.17800
C510        C  0.10896338  0.37249219  0.82703131    -0.17700
C511        C  0.17194740  0.39722697  0.86007752    -0.17300
C512        C  0.13698022  0.33715740  0.88948903    -0.17600
C513        C  0.46291673  0.41208264  0.64955265     0.79800
N514        N  0.00023817  0.39159767  0.64482567    -0.78500
C515        C  0.03666001  0.41396133  0.64405191     0.82300
N516        N  0.03437988  0.45506658  0.64558393    -0.78400
C517        C  0.99843637  0.47497290  0.65022512     0.82400
N518        N  0.46326211  0.45336865  0.65144961    -0.80100
C519        C  0.14797590  0.36468519  0.64412559     0.45100
H520        H  0.16768827  0.34496899  0.66384896    -0.03900
C521        C  0.10172442  0.41093738  0.59785382     0.45100
H522        H  0.08195735  0.43070344  0.57808008    -0.03900
C523        C  0.10713725  0.37878184  0.66530723    -0.17600
C524        C  0.16917053  0.40552515  0.63001833    -0.17400
C525        C  0.13386974  0.34348486  0.60330569    -0.17800
C526        C  0.07996414  0.39751974  0.63730208    -0.17700
C527        C  0.14116222  0.43270259  0.61130010    -0.17300
C528        C  0.11514948  0.37147984  0.57610881    -0.17600
C529        C  0.14281204  0.29986395  0.59063510     0.79800
N530        N  0.13877549  0.26296069  0.61272965    -0.78500
C531        C  0.14946568  0.22608190  0.59337817     0.82300
N532        N  0.16311774  0.22817931  0.55521576    -0.78400
C533        C  0.16225511  0.26285318  0.53352305     0.82400
N534        N  0.15348864  0.29819245  0.55133476    -0.80100
C535        C  0.09439633  0.36974940  0.70888781     0.79800
N536        N  0.05509609  0.35904464  0.71047794    -0.78500
C537        C  0.03721203  0.35025070  0.74577769     0.82300
N538        N  0.05883489  0.34936673  0.78048599    -0.78400
C539        C  0.09700016  0.36299659  0.78266190     0.82400
N540        N  0.11642196  0.37373884  0.74582855    -0.80100
C541        C  0.46358752  0.39680224  0.84311034     0.79800
N542        N  0.00101053  0.39159257  0.86418935    -0.78500
C543        C  0.03749797  0.40283524  0.84445767     0.82300
N544        N  0.03452430  0.41815740  0.80676454    -0.78400
C545        C  0.99931250  0.41815319  0.78579485     0.82400
N546        N  0.46434363  0.40888896  0.80409092    -0.80100
C547        C  0.35324153  0.46850456  0.90234409     0.79800
N548        N  0.35147711  0.46880011  0.94363582    -0.78500
C549        C  0.35285724  0.00394123  0.96526471     0.82300
N550        N  0.35752596  0.03988795  0.94537721    -0.78400
C551        C  0.35885312  0.04223458  0.90427799     0.82400
N552        N  0.35793778  0.00584776  0.88187248    -0.80100
C553        C  0.04309080  0.12142219  0.65620390     0.79800
N554        N  0.00566313  0.12663762  0.63513541    -0.78500
C555        C  0.46917318  0.11545537  0.65489609     0.82300
N556        N  0.47214714  0.10018503  0.69261312    -0.78400
C557        C  0.00736854  0.10017705  0.71356895     0.82400
N558        N  0.04233902  0.10938254  0.69524123    -0.80100
C559        C  0.15446187  0.16074183  0.64549967     0.45100
H560        H  0.17473865  0.18088124  0.66390072    -0.03900
C561        C  0.10655806  0.11479109  0.60165253     0.45100
H562        H  0.08561064  0.09561900  0.58299702    -0.03900
C563        C  0.13988297  0.18174446  0.60541150    -0.17600
C564        C  0.17528413  0.11933145  0.63339764    -0.17400
C565        C  0.11521579  0.14862790  0.66843347    -0.17800
C566        C  0.12076684  0.15368992  0.57854015    -0.17700
C567        C  0.14720756  0.09233351  0.61454721    -0.17300
C568        C  0.08642880  0.13009517  0.64243024    -0.17600
C569        C  0.39116372  0.35279857  0.53923633     0.79800
N570        N  0.40319077  0.31375637  0.53854506    -0.78500
C571        C  0.41238170  0.29536049  0.00359923     0.82300
N572        N  0.41237459  0.31626805  0.96834424    -0.78400
C573        C  0.39712244  0.35398700  0.96531411     0.82400
N574        N  0.38595396  0.37380086  0.00177286    -0.80100
O575        O  0.26383532  0.22654301  0.94275805    -0.72200
O576        O  0.24231097  0.22561926  0.55622513    -0.72400
O577        O  0.19684009  0.22918876  0.48569158    -0.72200
O578        O  0.30766569  0.22308492  0.01263894    -0.72200
O579        O  0.30983026  0.28914821  0.01364401    -0.72200
O580        O  0.19899248  0.29525404  0.48673073    -0.72200
O581        O  0.24283248  0.29180120  0.55660549    -0.72200
O582        O  0.26433143  0.29272868  0.94313712    -0.72300
V583        V  0.25238379  0.22688480  0.99932047     1.35200
V584        V  0.25428221  0.29144328  0.00004211     1.35200
C585        C  0.25603544  0.25988574  0.92461543     0.77100
C586        C  0.25063173  0.25845699  0.57474497     0.77100
C587        C  0.18060279  0.26278941  0.49483127     0.77000
C588        C  0.32605586  0.25553948  0.00450540     0.77000
O589        O  0.28938508  0.99614388  0.80392481    -0.72200
O590        O  0.28331788  0.52324642  0.69313631    -0.72400
O591        O  0.28590660  0.06608364  0.76018302    -0.72200
O592        O  0.28691080  0.45264501  0.73852175    -0.72200
O593        O  0.22072883  0.45220095  0.73902345    -0.72200
O594        O  0.21972052  0.06564247  0.76066405    -0.72200
O595        O  0.21725501  0.52213329  0.69526099    -0.72200
O596        O  0.22332196  0.99506610  0.80606232    -0.72300
V597        V  0.28559724  0.00953685  0.74865857     1.35200
V598        V  0.22103882  0.00875245  0.75053409     1.35200
C599        C  0.25691640  0.00421798  0.82231058     0.77100
C600        C  0.24973343  0.51408416  0.67687758     0.77100
C601        C  0.25255482  0.08421187  0.75240825     0.77000
C602        C  0.25408174  0.43407976  0.74680835     0.77000
O603        O  0.51740710  0.20261332  0.71982160    -0.72200
O604        O  0.99052649  0.31343518  0.71334086    -0.72400
O605        O  0.06037669  0.26961369  0.71711124    -0.72200
O606        O  0.44690018  0.24813607  0.71591827    -0.72200
O607        O  0.44634748  0.24872269  0.78209790    -0.72200
O608        O  0.05981847  0.27023121  0.78328644    -0.72200
O609        O  0.98928089  0.31573014  0.77939254    -0.72200
O610        O  0.51620936  0.20492472  0.78587266    -0.72300
V611        V  0.00381258  0.25815952  0.71733183     1.35200
V612        V  0.00290569  0.26019297  0.78187770     1.35200
C613        C  0.50817764  0.18646049  0.75344788     0.77100
C614        C  0.99852195  0.33189685  0.74577860     0.77100
C615        C  0.07842778  0.26186355  0.75050837     0.77000
C616        C  0.42828852  0.25646895  0.74870381     0.77000
C617        C  0.40967192  0.65534932  0.21663817     0.79800
N618        N  0.39027422  0.64460986  0.25348345    -0.78500
C619        C  0.41231201  0.64862476  0.29041307     0.82300
N620        N  0.45161130  0.65933928  0.28880169    -0.78400
C621        C  0.46947281  0.66812937  0.25348537     0.82400
N622        N  0.44783016  0.66900017  0.21878965    -0.80100
C623        C  0.21277530  0.91823734  0.13900849     0.79800
N624        N  0.24970283  0.89620064  0.13495735    -0.78500
C625        C  0.28655999  0.91559004  0.14566273     0.82300
N626        N  0.28442508  0.95374285  0.15933641    -0.78400
C627        C  0.24972295  0.97538704  0.15850264     0.82400
N628        N  0.21440233  0.95753056  0.14972411    -0.80100
C629        C  0.15558032  0.79498774  0.39731587     0.79800
N630        N  0.19688613  0.79510784  0.39974392    -0.78500
C631        C  0.21919371  0.76011313  0.39986846     0.82300
N632        N  0.19998460  0.72378692  0.39593033    -0.78400
C633        C  0.15889212  0.72114097  0.39360855     0.82400
N634        N  0.13590187  0.75735190  0.39315879    -0.80100
C635        C  0.11557218  0.66548578  0.46004362     0.79800
N636        N  0.10352223  0.70451914  0.46073563    -0.78500
C637        C  0.09429393  0.72288144  0.49567149     0.82300
N638        N  0.09428504  0.70195412  0.03092335    -0.78400
C639        C  0.10955502  0.66424544  0.03395748     0.82400
N640        N  0.12076360  0.64445801  0.49750290    -0.80100
C641        C  0.15348644  0.54975455  0.09687325     0.79800
N642        N  0.15531849  0.54946190  0.05558210    -0.78500
C643        C  0.15396133  0.51431794  0.03394945     0.82300
N644        N  0.14927632  0.97836761  0.05382988    -0.78400
C645        C  0.14788336  0.97602412  0.09492691     0.82400
N646        N  0.14875744  0.51241045  0.11733118    -0.80100
C647        C  0.40112546  0.85694312  0.21357090     0.79800
N648        N  0.40354194  0.81563447  0.21343097    -0.78500
C649        C  0.40352380  0.79329523  0.24840941     0.82300
N650        N  0.39945553  0.81247306  0.28472936    -0.78400
C651        C  0.39717736  0.85356155  0.28740023     0.82400
N652        N  0.39686293  0.87658822  0.25120696    -0.80100
C653        C  0.10053211  0.85906321  0.45908016     0.79800
N654        N  0.05924691  0.85724213  0.45944638    -0.78500
C655        C  0.03765698  0.85855474  0.49461838     0.82300
N656        N  0.05758486  0.86320260  0.03054789    -0.78400
C657        C  0.09869424  0.86468187  0.03281397     0.82400
N658        N  0.12104200  0.86382486  0.49638364    -0.80100
O659        O  0.44593518  0.74565751  0.47093640    -0.72200
O660        O  0.05697536  0.76941264  0.46239427    -0.72400
O661        O  0.51260265  0.70093513  0.46903057    -0.72200
O662        O  0.99201764  0.81456983  0.46410307    -0.72200
O663        O  0.99403663  0.81726306  0.03024220    -0.72200
O664        O  0.51463673  0.70363202  0.03516661    -0.72200
O665        O  0.06069835  0.77255386  0.02834093    -0.72200
O666        O  0.44966083  0.74878245  0.03686991    -0.72300
V667        V  0.00162150  0.75763092  0.46741472     1.35200
V668        V  0.00501728  0.76056910  0.03185662     1.35200
C669        C  0.43069429  0.75639441  0.50443229     0.77100
C670        C  0.07594328  0.76184052  0.49484157     0.77100
C671        C  0.50567551  0.68405966  0.00311627     0.77000
C672        C  0.00097958  0.83413881  0.49615557     0.77000
C673        C  0.34834364  0.97506597  0.10576955     0.79800
N674        N  0.36807919  0.51152726  0.11706741    -0.78500
C675        C  0.34699955  0.54896063  0.11193838     0.82300
N676        N  0.30797610  0.54823590  0.09985969    -0.78400
C677        C  0.28967143  0.51328564  0.09055512     0.82400
N678        N  0.31063655  0.97807115  0.09049168    -0.80100
O679        O  0.24317882  0.54649833  0.05316554    -0.72200
O680        O  0.26684994  0.53771134  0.44213830    -0.72400
O681        O  0.19799511  0.54477253  0.98827886    -0.72200
O682        O  0.31162101  0.53964294  0.50881702    -0.72200
O683        O  0.30880182  0.97350285  0.51090946    -0.72200
O684        O  0.19517675  0.97863328  0.99036613    -0.72200
O685        O  0.26361775  0.97177555  0.44600464    -0.72200
O686        O  0.23994973  0.98055843  0.05703000    -0.72300
V687        V  0.25493348  0.54136292  0.49782955     1.35200
V688        V  0.25186600  0.97692619  0.50134435     1.35200
C689        C  0.25071576  0.51408200  0.07220017     0.77100
C690        C  0.25606788  0.50419140  0.42697252     0.77100
C691        C  0.17837567  0.51275425  0.99727788     0.77000
C692        C  0.32842724  0.50552139  0.50192300     0.77000
C693        C  0.40613802  0.65919734  0.04022396     0.79800
N694        N  0.44742434  0.66096744  0.03984271    -0.78500
C695        C  0.46899957  0.65964313  0.00466406     0.82300
N696        N  0.44905271  0.65500918  0.46874996    -0.78400
C697        C  0.40794069  0.65357732  0.46649435     0.82400
N698        N  0.38560569  0.65446369  0.00292808    -0.80100
C699        C  0.35190052  0.86350027  0.15062217     0.45100
H700        H  0.33177032  0.84509057  0.17091419    -0.03900
C701        C  0.39782486  0.90736856  0.10268486     0.45100
H702        H  0.41698242  0.92603515  0.08172939    -0.03900
C703        C  0.33090369  0.90359548  0.13608192    -0.17600
C704        C  0.39334068  0.87557003  0.17139980    -0.17400
C705        C  0.36394949  0.84059157  0.11136074    -0.17800
C706        C  0.35894357  0.93048141  0.11695618    -0.17700
C707        C  0.42032543  0.89443246  0.14330312    -0.17300
C708        C  0.38248134  0.86659439  0.08255635    -0.17600
C709        C  0.34783086  0.79715824  0.10567936     0.79800
N710        N  0.30673541  0.79452877  0.10337781    -0.78500
C711        C  0.28750708  0.75821018  0.09945707     0.82300
N712        N  0.30980051  0.72320520  0.09957696    -0.78400
C713        C  0.35110944  0.72330824  0.10198449     0.82400
N714        N  0.37080553  0.76093726  0.10612435    -0.80100
C715        C  0.40152280  0.61242322  0.10537216     0.45100
H716        H  0.42019850  0.59147478  0.08623038    -0.03900
C717        C  0.35762091  0.66033888  0.15125928     0.45100
H718        H  0.33919564  0.68061857  0.17137065    -0.03900
C719        C  0.38855941  0.65302014  0.08284949    -0.17600
C720        C  0.36076239  0.59227513  0.12069023    -0.17400
C721        C  0.42461223  0.62668591  0.14426153    -0.17800
C722        C  0.36970288  0.68112493  0.10981195    -0.17700
C723        C  0.33473690  0.62105428  0.13921060    -0.17300
C724        C  0.39770768  0.64580419  0.17228221    -0.17600
C725        C  0.21746906  0.61153670  0.15199305     0.79800
N726        N  0.21734717  0.60910972  0.19329570    -0.78500
C727        C  0.25233742  0.60901011  0.21560413     0.82300
N728        N  0.28866097  0.61299878  0.19639835    -0.78400
C729        C  0.29130654  0.61532695  0.15530707     0.82400
N730        N  0.25509977  0.61573471  0.13231486    -0.80100
C731        C  0.04379473  0.60626688  0.34977344     0.79800
N732        N  0.00647804  0.62677404  0.35445799    -0.78500
C733        C  0.47005113  0.60441767  0.35527405     0.82300
N734        N  0.47232443  0.56330908  0.35381759    -0.78400
C735        C  0.00825993  0.54338564  0.34920121     0.82400
N736        N  0.04343781  0.56497829  0.34795324    -0.80100
O737        O  0.46610716  0.95555358  0.23929534    -0.72200
O738        O  0.47462747  0.56655283  0.26320508    -0.72400
O739        O  0.46786332  0.02055584  0.19422915    -0.72200
O740        O  0.47267598  0.49982039  0.30784374    -0.72200
O741        O  0.03882192  0.49780238  0.30518804    -0.72200
O742        O  0.03400991  0.01855162  0.19157652    -0.72200
O743        O  0.04057654  0.56282929  0.26012498    -0.72200
O744        O  0.03206035  0.95183219  0.23620477    -0.72300
V745        V  0.47111733  0.51088367  0.25115987     1.35200
V746        V  0.03556855  0.50749405  0.24825910     1.35200
C747        C  0.99854452  0.93656880  0.24686689     0.77100
C748        C  0.00814186  0.58180949  0.25252681     0.77100
C749        C  0.99994032  0.01161558  0.17468132     0.77000
C750        C  0.00674799  0.50673930  0.32474159     0.77000
C751        C  0.10949980  0.66470757  0.21186978     0.79800
N752        N  0.10720165  0.70579838  0.21451350    -0.78500
C753        C  0.10314452  0.72500115  0.25082288     0.82300
N754        N  0.10313846  0.70268371  0.28581801    -0.78400
C755        C  0.10556974  0.66137325  0.28570326     0.82400
N756        N  0.10983269  0.64170691  0.24807865    -0.80100
C757        C  0.15971860  0.96932844  0.38735509     0.79800
N758        N  0.13864935  0.50676777  0.38222439    -0.78500
C759        C  0.15841363  0.54322983  0.39347141     0.82300
N760        N  0.19614083  0.54021915  0.40870435    -0.78400
C761        C  0.21709084  0.50499470  0.40864918     0.82400
N762        N  0.19875651  0.97004626  0.39939264    -0.80100
C763        C  0.10892519  0.61092611  0.39658523     0.45100
H764        H  0.08977611  0.59225166  0.41754544    -0.03900
C765        C  0.15482211  0.65481443  0.34864036     0.45100
H766        H  0.17494222  0.67323418  0.32834571    -0.03900
C767        C  0.14779896  0.58781640  0.38228964    -0.17600
C768        C  0.08640027  0.62388994  0.35598716    -0.17400
C769        C  0.12427761  0.65168650  0.41672321    -0.17800
C770        C  0.17582393  0.61470903  0.36315125    -0.17700
C771        C  0.11336919  0.64276049  0.32788097    -0.17300
C772        C  0.14279353  0.67770306  0.38791975    -0.17600
C773        C  0.29393934  0.60003474  0.36019816     0.79600
N774        N  0.25701997  0.62208081  0.36425808    -0.78500
C775        C  0.22015744  0.60271393  0.35353718     0.82300
N776        N  0.22227715  0.56456808  0.33984342    -0.78400
C777        C  0.25696942  0.54290788  0.34067425     0.82400
N778        N  0.29230056  0.56074453  0.34946584    -0.80100
C779        C  0.35870432  0.65363435  0.35515412     0.45100
H780        H  0.33899222  0.67335121  0.33543256    -0.03900
C781        C  0.40495379  0.60738354  0.40141938     0.45100
H782        H  0.42471985  0.58761754  0.42119099    -0.03900
C783        C  0.39957606  0.63959714  0.33399606    -0.17600
C784        C  0.37274797  0.67480579  0.39601054    -0.17400
C785        C  0.33753630  0.61276065  0.36919786    -0.17800
C786        C  0.42674418  0.62086116  0.36200485    -0.17700
C787        C  0.39147367  0.64680724  0.42319744    -0.17300
C788        C  0.36554883  0.58558766  0.38791266    -0.17600
C789        C  0.35714272  0.79220266  0.40591804     0.79800
N790        N  0.36782798  0.75531756  0.38658047    -0.78500
C791        C  0.36379668  0.71842279  0.40868747     0.82300
N792        N  0.35312975  0.72010711  0.44799363    -0.78400
C793        C  0.34436904  0.75545792  0.46579411     0.82400
N794        N  0.34350312  0.79012209  0.44408605    -0.80100
C795        C  0.40011091  0.90345902  0.39761940     0.45100
H796        H  0.42106409  0.92262648  0.41627673    -0.03900
C797        C  0.35219734  0.85752648  0.35376521     0.45100
H798        H  0.33191777  0.83739259  0.33535879    -0.03900
C799        C  0.35948263  0.92593949  0.38468925    -0.17600
C800        C  0.42024992  0.88813118  0.35686395    -0.17400
C801        C  0.38587915  0.86457554  0.42073850    -0.17800
C802        C  0.33139428  0.89895262  0.36584003    -0.17700
C803        C  0.39146185  0.86961731  0.33084797    -0.17300
C804        C  0.36674539  0.83652977  0.39387089    -0.17600
C805        C  0.28921263  0.90674634  0.34724783     0.79800
N806        N  0.28932163  0.90919296  0.30594399    -0.78500
C807        C  0.25432176  0.90930117  0.28364645     0.82300
N808        N  0.21800219  0.90531620  0.30286520    -0.78400
C809        C  0.21537178  0.90296327  0.34395797     0.82400
N810        N  0.25158764  0.90253994  0.36693452    -0.80100
C811        C  0.10517362  0.90586805  0.39395132     0.45100
H812        H  0.08650515  0.92681790  0.41310238    -0.03900
C813        C  0.14905299  0.85795397  0.34804016     0.45100
H814        H  0.16746784  0.83767359  0.32792038    -0.03900
C815        C  0.08206737  0.89160457  0.35507070    -0.17600
C816        C  0.14593662  0.92601306  0.37862009    -0.17400
C817        C  0.11812955  0.86526539  0.41646361    -0.17800
C818        C  0.10896331  0.87249952  0.32703290    -0.17700
C819        C  0.17194790  0.89723341  0.36008026    -0.17300
C820        C  0.13697794  0.83716485  0.38949017    -0.17600
C821        C  0.46292006  0.91207365  0.14955254     0.79800
N822        N  0.00024129  0.89158863  0.14482559    -0.78500
C823        C  0.03666340  0.91395161  0.14405206     0.82300
N824        N  0.03438398  0.95505702  0.14558490    -0.78400
C825        C  0.99844058  0.97496395  0.15022574     0.82400
N826        N  0.46326576  0.95335991  0.15145015    -0.80100
C827        C  0.14797779  0.86467176  0.14412870     0.45100
H828        H  0.16768901  0.84495511  0.16385260    -0.03900
C829        C  0.10172868  0.91092456  0.09785499     0.45100
H830        H  0.08196327  0.93069036  0.07808123    -0.03900
C831        C  0.10713862  0.87877019  0.16530901    -0.17600
C832        C  0.16917418  0.90551088  0.13002141    -0.17400
C833        C  0.13387258  0.84347132  0.10330836    -0.17800
C834        C  0.07996700  0.89750825  0.13730290    -0.17700
C835        C  0.14116686  0.93268878  0.11130267    -0.17300
C836        C  0.11515336  0.87146634  0.07611063    -0.17600
C837        C  0.14281619  0.79985058  0.09063773     0.79800
N838        N  0.13878085  0.76294697  0.11273207    -0.78500
C839        C  0.14947282  0.72606883  0.09338034     0.82300
N840        N  0.16312491  0.72816676  0.05521832    -0.78400
C841        C  0.16226092  0.76284059  0.03352580     0.82400
N842        N  0.15349333  0.79817952  0.05133751    -0.80100
C843        C  0.09439645  0.86974208  0.20889022     0.79800
N844        N  0.05509562  0.85903900  0.21048146    -0.78500
C845        C  0.03721091  0.85024968  0.24578223     0.82300
N846        N  0.05883370  0.84936900  0.28049075    -0.78400
C847        C  0.09699924  0.86299877  0.28266500     0.82400
N848        N  0.11642165  0.87373561  0.24583052    -0.80100
C849        C  0.46358844  0.89681262  0.34311258     0.79800
N850        N  0.00101136  0.89160408  0.36419200    -0.78500
C851        C  0.03749877  0.90284407  0.34445879     0.82300
N852        N  0.03452517  0.91816196  0.30676425    -0.78400
C853        C  0.99931343  0.91815654  0.28579484     0.82400
N854        N  0.46434453  0.90889550  0.30409205    -0.80100
C855        C  0.35324147  0.96851434  0.40234744     0.79800
N856        N  0.35147779  0.96881078  0.44363925    -0.78500
C857        C  0.35285877  0.50395264  0.46526722     0.82300
N858        N  0.35752814  0.53989866  0.44537875    -0.78400
C859        C  0.35885396  0.54224421  0.40427968     0.82400
N860        N  0.35793760  0.50585713  0.38187496    -0.80100
C861        C  0.04309558  0.62141470  0.15620159     0.79800
N862        N  0.00566815  0.62662559  0.13513136    -0.78500
C863        C  0.46917849  0.61544483  0.15489375     0.82300
N864        N  0.47215286  0.60018029  0.19261240    -0.78400
C865        C  0.00737353  0.60017638  0.21356852     0.82400
N866        N  0.04234365  0.60938036  0.19524019    -0.80100
C867        C  0.15446810  0.66072880  0.14550036     0.45100
H868        H  0.17474677  0.68086926  0.16390325    -0.03900
C869        C  0.10656396  0.61477917  0.10165287     0.45100
H870        H  0.08561603  0.59560747  0.08299688    -0.03900
C871        C  0.13989110  0.68173131  0.10541240    -0.17600
C872        C  0.17528931  0.61931767  0.13339893    -0.17400
C873        C  0.11522042  0.64861894  0.16843262    -0.17800
C874        C  0.12077427  0.65367725  0.07854081    -0.17700
C875        C  0.14721215  0.59232019  0.11454888    -0.17300
C876        C  0.08643403  0.63008526  0.14242894    -0.17600
C877        C  0.39116971  0.85278205  0.03923353     0.79800
N878        N  0.40319693  0.81374001  0.03853977    -0.78500
C879        C  0.41237605  0.79537497  0.50360577     0.82300
N880        N  0.41237056  0.81628090  0.46835011    -0.78400
C881        C  0.39712004  0.85400001  0.46531752     0.82400
N882        N  0.38595005  0.87381584  0.50177462    -0.80100
O883        O  0.26383202  0.72655422  0.44275766    -0.72200
O884        O  0.24231758  0.72560348  0.05622617    -0.72400
O885        O  0.19684488  0.72917599  0.98569384    -0.72200
O886        O  0.30766003  0.72309808  0.51263931    -0.72200
O887        O  0.30982534  0.78916144  0.51364162    -0.72200
O888        O  0.19899781  0.79524123  0.98673430    -0.72200
O889        O  0.24283878  0.79178547  0.05660895    -0.72200
O890        O  0.26432830  0.79273995  0.44313425    -0.72300
V891        V  0.25237857  0.72689825  0.49931961     1.35200
V892        V  0.25427736  0.79145668  0.50003897     1.35200
C893        C  0.25603326  0.75989630  0.42461339     0.77100
C894        C  0.25063862  0.75844060  0.07474710     0.77100
C895        C  0.18060801  0.76277665  0.99483420     0.77000
C896        C  0.32605087  0.75555191  0.50450493     0.77000
O897        O  0.28939067  0.49614089  0.30392936    -0.72200
O898        O  0.28332917  0.02322917  0.19313688    -0.72400
O899        O  0.28591694  0.56607425  0.26017951    -0.72200
O900        O  0.28691755  0.95263409  0.23852762    -0.72200
O901        O  0.22073529  0.95219260  0.23902682    -0.72200
O902        O  0.21973069  0.56563454  0.26066150    -0.72200
O903        O  0.21726604  0.02212128  0.19526025    -0.72200
O904        O  0.22332771  0.49506334  0.30606408    -0.72300
V905        V  0.28560572  0.50952654  0.24866068     1.35200
V906        V  0.22104720  0.50874463  0.25053454     1.35200
C907        C  0.25692106  0.50421873  0.32231241     0.77100
C908        C  0.24974433  0.01406761  0.17687852     0.77100
C909        C  0.25256519  0.58420270  0.25240490     0.77000
C910        C  0.25408728  0.93407025  0.24681253     0.77000
O911        O  0.51740230  0.70261606  0.21981802    -0.72200
O912        O  0.99051970  0.81343791  0.21334705    -0.72400
O913        O  0.06037057  0.76961482  0.21710654    -0.72200
O914        O  0.44689422  0.74813490  0.21592663    -0.72200
O915        O  0.44634735  0.74872260  0.28210638    -0.72200
O916        O  0.05981849  0.77023126  0.28328181    -0.72200
O917        O  0.98928096  0.81572959  0.27939900    -0.72200
O918        O  0.51620893  0.70492357  0.28586964    -0.72300
V919        V  0.00380620  0.75816149  0.21733338     1.35200
V920        V  0.00290577  0.76019230  0.28187968     1.35200
C921        C  0.50817552  0.68646126  0.25344383     0.77100
C922        C  0.99851956  0.83189764  0.24578505     0.77100
C923        C  0.07842444  0.76186331  0.25050193     0.77000
C924        C  0.42828532  0.75646809  0.24871384     0.77000
C925        C  0.40967102  0.65535990  0.71664189     0.79800
N926        N  0.39027356  0.64461672  0.75348597    -0.78500
C927        C  0.41231276  0.64862439  0.79041525     0.82300
N928        N  0.45161270  0.65933737  0.78880479    -0.78400
C929        C  0.46947421  0.66813042  0.75348898     0.82400
N930        N  0.44783083  0.66900600  0.71879407    -0.80100
C931        C  0.21277085  0.91825313  0.63900575     0.79800
N932        N  0.24969927  0.89621731  0.63495754    -0.78500
C933        C  0.28655527  0.91560879  0.64566331     0.82300
N934        N  0.28441812  0.95376224  0.65933451    -0.78400
C935        C  0.24971507  0.97540492  0.65849941     0.82400
N936        N  0.21439573  0.95754661  0.64972002    -0.80100
C937        C  0.15558274  0.79498029  0.89731578     0.79800
N938        N  0.19688860  0.79509929  0.89974572    -0.78500
C939        C  0.21919511  0.76010374  0.89987172     0.82300
N940        N  0.19998491  0.72377794  0.89593434    -0.78400
C941        C  0.15889255  0.72113326  0.89361141     0.82400
N942        N  0.13590340  0.75734476  0.89315953    -0.80100
C943        C  0.11557481  0.66547568  0.96004571     0.79800
N944        N  0.10352640  0.70450927  0.96073929    -0.78500
C945        C  0.09429959  0.72287082  0.99567560     0.82300
N946        N  0.09427920  0.70196551  0.53091977    -0.78400
C947        C  0.10954943  0.66425717  0.53395562     0.82400
N948        N  0.12076736  0.64444687  0.99750398    -0.80100
C949        C  0.15348308  0.54976851  0.59687130     0.79800
N950        N  0.15531740  0.54947619  0.55558022    -0.78500
C951        C  0.15396033  0.51433253  0.53394726     0.82300
N952        N  0.14927298  0.97838204  0.55382719    -0.78400
C953        C  0.14787777  0.97603812  0.59492416     0.82400
N954        N  0.14875191  0.51242437  0.61732859    -0.80100
C955        C  0.40112491  0.85694720  0.71356795     0.79800
N956        N  0.40354575  0.81563851  0.71342295    -0.78500
C957        C  0.40352607  0.79329527  0.74839934     0.82300
N958        N  0.39945393  0.81246869  0.78472093    -0.78400
C959        C  0.39717462  0.85355652  0.78739651     0.82400
N960        N  0.39685990  0.87658729  0.75120608    -0.80100
C961        C  0.10053512  0.85905382  0.95908062     0.79800
N962        N  0.05925003  0.85723109  0.95944761    -0.78500
C963        C  0.03766070  0.85854056  0.99461998     0.82300
N964        N  0.05758079  0.86321874  0.53054614    -0.78400
C965        C  0.09869013  0.86469565  0.53281270     0.82400
N966        N  0.12104553  0.86381429  0.99638428    -0.80100
O967        O  0.44594227  0.74564383  0.97092877    -0.72200
O968        O  0.05698265  0.76940158  0.96239688    -0.72400
O969        O  0.51261023  0.70092166  0.96902694    -0.72200
O970        O  0.99202325  0.81455627  0.96410187    -0.72200
O971        O  0.99403479  0.81727840  0.53024334    -0.72200
O972        O  0.51463168  0.70364704  0.53517004    -0.72200
O973        O  0.06069602  0.77256690  0.52833778    -0.72200
O974        O  0.44965813  0.74880011  0.53687736    -0.72300
V975        V  0.00162866  0.75761777  0.96741221     1.35200
V976        V  0.00501453  0.76058440  0.53185871     1.35200
C977        C  0.43069932  0.75637926  0.00442412     0.77100
C978        C  0.07594842  0.76182938  0.99484554     0.77100
C979        C  0.50566915  0.68407404  0.50312048     0.77000
C980        C  0.00098333  0.83412443  0.99615533     0.77000
C981        C  0.34834151  0.97508472  0.60577478     0.79800
N982        N  0.36807533  0.51154619  0.61707518    -0.78500
C983        C  0.34699507  0.54897926  0.61194528     0.82300
N984        N  0.30797277  0.54825429  0.59986358    -0.78400
C985        C  0.28966988  0.51330411  0.59055639     0.82400
N986        N  0.31063580  0.97808996  0.59049342    -0.80100
O987        O  0.24317951  0.54651573  0.55316352    -0.72200
O988        O  0.26684849  0.53770035  0.94213965    -0.72400
O989        O  0.19799603  0.54478650  0.48827742    -0.72200
O990        O  0.31161986  0.53962860  0.00881751    -0.72200
O991        O  0.30880173  0.97348817  0.01090621    -0.72200
O992        O  0.19517761  0.97864744  0.49036667    -0.72200
O993        O  0.26361619  0.97176430  0.94600212    -0.72200
O994        O  0.23994886  0.98057623  0.55703132    -0.72300
V995        V  0.25493238  0.54134880  0.99783099     1.35200
V996        V  0.25186558  0.97691165  0.00134246     1.35200
C997        C  0.25071516  0.51410014  0.57219993     0.77100
C998        C  0.25606590  0.50418143  0.92697223     0.77100
C999        C  0.17837657  0.51276823  0.49727701     0.77000
C1000       C  0.32842614  0.50550770  0.00192114     0.77000
C1001       C  0.40613064  0.65921424  0.54022706     0.79800
N1002       N  0.44741686  0.66098516  0.53984695    -0.78500
C1003       C  0.46899342  0.65965753  0.50466931     0.82300
N1004       N  0.44905720  0.65499823  0.96874513    -0.78400
C1005       C  0.40794496  0.65356662  0.96649135     0.82400
N1006       N  0.38559987  0.65447704  0.50293043    -0.80100
C1007       C  0.35189446  0.86351651  0.65062442     0.45100
H1008       H  0.33176303  0.84510635  0.67091695    -0.03900
C1009       C  0.39781980  0.90738438  0.60268769     0.45100
H1010       H  0.41697814  0.92605037  0.58173228    -0.03900
C1011       C  0.33090001  0.90361416  0.63608707    -0.17600
C1012       C  0.39333717  0.87558008  0.67140010    -0.17400
C1013       C  0.36394006  0.84060949  0.61136171    -0.17800
C1014       C  0.35894084  0.93049978  0.61696227    -0.17700
C1015       C  0.42032165  0.89444312  0.64330356    -0.17300
C1016       C  0.38247292  0.86661223  0.58255786    -0.17600
C1017       C  0.34782202  0.79717619  0.60568031     0.79800
N1018       N  0.30672683  0.79454632  0.60337688    -0.78500
C1019       C  0.28749926  0.75822739  0.59945625     0.82300
N1020       N  0.30979302  0.72322241  0.59957853    -0.78400
C1021       C  0.35110186  0.72332597  0.60198835     0.82400
N1022       N  0.37079703  0.76095547  0.60612800    -0.80100
C1023       C  0.40151626  0.61244111  0.60537598     0.45100
H1024       H  0.42019121  0.59149139  0.58623233    -0.03900
C1025       C  0.35761704  0.66035703  0.65126496     0.45100
H1026       H  0.33919238  0.68063728  0.67137775    -0.03900
C1027       C  0.38855204  0.65303767  0.58285315    -0.17600
C1028       C  0.36075702  0.59229347  0.62069666    -0.17400
C1029       C  0.42460814  0.62670232  0.64426413    -0.17800
C1030       C  0.36969660  0.68114290  0.60981645    -0.17700
C1031       C  0.33473192  0.62107263  0.63921786    -0.17300
C1032       C  0.39770506  0.64582105  0.67228567    -0.17600
C1033       C  0.21746337  0.61155099  0.65199456     0.79800
N1034       N  0.21733909  0.60912053  0.69329721    -0.78500
C1035       C  0.25232807  0.60902116  0.71560789     0.82300
N1036       N  0.28865281  0.61301355  0.69640441    -0.78400
C1037       C  0.29130068  0.61534503  0.65531322     0.82400
N1038       N  0.25509513  0.61575249  0.63231916    -0.80100
C1039       C  0.04379433  0.60626066  0.84977487     0.79800
N1040       N  0.00647753  0.62676804  0.85445704    -0.78500
C1041       C  0.47005100  0.60441116  0.85527446     0.82300
N1042       N  0.47232484  0.56330272  0.85382173    -0.78400
C1043       C  0.00825995  0.54337921  0.84920613     0.82400
N1044       N  0.04343774  0.56497200  0.84795715    -0.80100
O1045       O  0.46610506  0.95555361  0.73929809    -0.72200
O1046       O  0.47462291  0.56655301  0.76320796    -0.72400
O1047       O  0.46785883  0.02055832  0.69423345    -0.72200
O1048       O  0.47267476  0.49981788  0.80784674    -0.72200
O1049       O  0.03882060  0.49779992  0.80518915    -0.72200
O1050       O  0.03400555  0.01855562  0.69157991    -0.72200
O1051       O  0.04057178  0.56283074  0.76012816    -0.72200
O1052       O  0.03205853  0.95183353  0.73620612    -0.72300
V1053       V  0.47111421  0.51088364  0.75116329     1.35200
V1054       V  0.03556538  0.50749541  0.74826130     1.35200
C1055       C  0.99854313  0.93656908  0.74686836     0.77100
C1056       C  0.00813677  0.58180988  0.75252822     0.77100
C1057       C  0.99993593  0.01162123  0.67468448     0.77000
C1058       C  0.00674725  0.50673493  0.82474424     0.77000
C1059       C  0.10949897  0.66471180  0.71187292     0.79800
N1060       N  0.10720714  0.70580224  0.71452036    -0.78500
C1061       C  0.10314934  0.72500256  0.75083075     0.82300
N1062       N  0.10313997  0.70268253  0.78582424    -0.78400
C1063       C  0.10556847  0.66137171  0.78570625     0.82400
N1064       N  0.10982901  0.64170788  0.74807980    -0.80100
C1065       C  0.15971682  0.96932096  0.88735428     0.79800
N1066       N  0.13864770  0.50676071  0.88222395    -0.78500
C1067       C  0.15841230  0.54322247  0.89347157     0.82300
N1068       N  0.19613932  0.54021103  0.90870512    -0.78400
C1069       C  0.21708883  0.50498611  0.90864916     0.82400
N1070       N  0.19875442  0.97003830  0.89939188    -0.80100
C1071       C  0.10892421  0.61091876  0.89658640     0.45100
H1072       H  0.08977669  0.59224574  0.91754505    -0.03900
C1073       C  0.15482140  0.65480873  0.84864209     0.45100
H1074       H  0.17494058  0.67322754  0.82834948    -0.03900
C1075       C  0.14779799  0.58780969  0.88229037    -0.17600
C1076       C  0.08639963  0.62388406  0.85598829    -0.17400
C1077       C  0.12427779  0.65167851  0.91672470    -0.17800
C1078       C  0.17582294  0.61470342  0.86315358    -0.17700
C1079       C  0.11336821  0.64275529  0.82788250    -0.17300
C1080       C  0.14279288  0.67769594  0.88792181    -0.17600
C1081       C  0.29393827  0.60002862  0.86020145     0.79600
N1082       N  0.25701946  0.62207584  0.86426200    -0.78500
C1083       C  0.22015661  0.60270982  0.85354075     0.82300
N1084       N  0.22227550  0.56456488  0.83984618    -0.78400
C1085       C  0.25696662  0.54290369  0.84067703     0.82400
N1086       N  0.29229826  0.56073864  0.84946897    -0.80100
C1087       C  0.35870408  0.65362661  0.85515447     0.45100
H1088       H  0.33899182  0.67334384  0.83543379    -0.03900
C1089       C  0.40495401  0.60737375  0.90141788     0.45100
H1090       H  0.42471924  0.58760783  0.92118832    -0.03900
C1091       C  0.39957606  0.63959104  0.83399640    -0.17600
C1092       C  0.37274880  0.67479669  0.89601018    -0.17400
C1093       C  0.33753605  0.61275289  0.86919838    -0.17800
C1094       C  0.42674386  0.62085326  0.86200408    -0.17700
C1095       C  0.39147535  0.64679758  0.92319596    -0.17300
C1096       C  0.36554865  0.58557864  0.88791136    -0.17600
C1097       C  0.35714077  0.79219251  0.90591668     0.79800
N1098       N  0.36782649  0.75530771  0.88657893    -0.78500
C1099       C  0.36379831  0.71841317  0.90868689     0.82300
N1100       N  0.35313387  0.72009712  0.94799337    -0.78400
C1101       C  0.34437204  0.75544719  0.96579391     0.82400
N1102       N  0.34350399  0.79011157  0.94408585    -0.80100
C1103       C  0.40011007  0.90344814  0.89761678     0.45100
H1104       H  0.42106294  0.92261464  0.91627323    -0.03900
C1105       C  0.35219517  0.85751689  0.85376214     0.45100
H1106       H  0.33191533  0.83738369  0.83535492    -0.03900
C1107       C  0.35948223  0.92592965  0.88468565    -0.17600
C1108       C  0.42024900  0.88811979  0.85686168    -0.17400
C1109       C  0.38587770  0.86456466  0.92073603    -0.17800
C1110       C  0.33139333  0.89894403  0.86583540    -0.17700
C1111       C  0.39146031  0.86960738  0.83084560    -0.17300
C1112       C  0.36674229  0.83651988  0.89386873    -0.17600
C1113       C  0.28921179  0.90674109  0.84724287     0.79800
N1114       N  0.28931977  0.90919722  0.80593904    -0.78500
C1115       C  0.25431873  0.90930925  0.78364241     0.82300
N1116       N  0.21799953  0.90532113  0.80286164    -0.78400
C1117       C  0.21537051  0.90295943  0.84395410     0.82400
N1118       N  0.25158708  0.90253087  0.86692921    -0.80100
C1119       C  0.10517338  0.90585910  0.89395057     0.45100
H1120       H  0.08650396  0.92680882  0.91310243    -0.03900
C1121       C  0.14905370  0.85794697  0.84803843     0.45100
H1122       H  0.16746922  0.83766707  0.82791808    -0.03900
C1123       C  0.08206683  0.89159533  0.85507002    -0.17600
C1124       C  0.14593529  0.92600568  0.87861838    -0.17400
C1125       C  0.11813133  0.86525723  0.91646321    -0.17800
C1126       C  0.10896342  0.87249226  0.82703150    -0.17700
C1127       C  0.17194739  0.89722698  0.86007776    -0.17300
C1128       C  0.13698031  0.83715748  0.88948926    -0.17600
C1129       C  0.46291686  0.91208264  0.64955259     0.79800
N1130       N  0.00023813  0.89159764  0.64482581    -0.78500
C1131       C  0.03666001  0.91396124  0.64405198     0.82300
N1132       N  0.03437997  0.95506647  0.64558412    -0.78400
C1133       C  0.99843642  0.97497286  0.65022532     0.82400
N1134       N  0.46326221  0.95336864  0.65144958    -0.80100
C1135       C  0.14797609  0.86468499  0.64412580     0.45100
H1136       H  0.16768817  0.84496854  0.66384905    -0.03900
C1137       C  0.10172428  0.91093747  0.59785382     0.45100
H1138       H  0.08195848  0.93070245  0.57808137    -0.03900
C1139       C  0.10713741  0.87878164  0.66530740    -0.17600
C1140       C  0.16917054  0.90552504  0.63001845    -0.17400
C1141       C  0.13386988  0.84348481  0.60330577    -0.17800
C1142       C  0.07996437  0.89751964  0.63730234    -0.17700
C1143       C  0.14116221  0.93270249  0.61130024    -0.17300
C1144       C  0.11514945  0.87147972  0.57610899    -0.17600
C1145       C  0.14281209  0.79986391  0.59063507     0.79800
N1146       N  0.13877575  0.76296059  0.61272963    -0.78500
C1147       C  0.14946582  0.72608194  0.59337796     0.82300
N1148       N  0.16311784  0.72817938  0.55521560    -0.78400
C1149       C  0.16225511  0.76285333  0.53352294     0.82400
N1150       N  0.15348872  0.79819244  0.55133472    -0.80100
C1151       C  0.09439646  0.86974942  0.70888792     0.79800
N1152       N  0.05509621  0.85904449  0.71047808    -0.78500
C1153       C  0.03721219  0.85025054  0.74577774     0.82300
N1154       N  0.05883495  0.84936670  0.78048614    -0.78400
C1155       C  0.09700028  0.86299656  0.78266200     0.82400
N1156       N  0.11642207  0.87373872  0.74582865    -0.80100
C1157       C  0.46358760  0.89680219  0.84311039     0.79800
N1158       N  0.00101071  0.89159246  0.86418937    -0.78500
C1159       C  0.03749814  0.90283525  0.84445780     0.82300
N1160       N  0.03452442  0.91815738  0.80676472    -0.78400
C1161       C  0.99931264  0.91815309  0.78579495     0.82400
N1162       N  0.46434375  0.90888879  0.80409098    -0.80100
C1163       C  0.35324156  0.96850452  0.90234412     0.79800
N1164       N  0.35147734  0.96880001  0.94363582    -0.78500
C1165       C  0.35285718  0.50394114  0.96526473     0.82300
N1166       N  0.35752605  0.53988798  0.94537719    -0.78400
C1167       C  0.35885328  0.54223459  0.90427800     0.82400
N1168       N  0.35793785  0.50584786  0.88187246    -0.80100
C1169       C  0.04309110  0.62142236  0.65620396     0.79800
N1170       N  0.00566344  0.62663791  0.63513547    -0.78500
C1171       C  0.46917342  0.61545550  0.65489612     0.82300
N1172       N  0.47214741  0.60018507  0.69261306    -0.78400
C1173       C  0.00736879  0.60017701  0.71356888     0.82400
N1174       N  0.04233930  0.60938266  0.69524120    -0.80100
C1175       C  0.15446209  0.66074189  0.64549954     0.45100
H1176       H  0.17474018  0.68088267  0.66390172    -0.03900
C1177       C  0.10655836  0.61479119  0.60165268     0.45100
H1178       H  0.08561153  0.59561935  0.58299782    -0.03900
C1179       C  0.13988354  0.68174457  0.60541150    -0.17600
C1180       C  0.17528455  0.61933168  0.63339769    -0.17400
C1181       C  0.11521609  0.64862829  0.66843348    -0.17800
C1182       C  0.12076726  0.65369003  0.57854023    -0.17700
C1183       C  0.14720788  0.59233370  0.61454737    -0.17300
C1184       C  0.08642917  0.63009523  0.64243039    -0.17600
C1185       C  0.39116370  0.85279858  0.53923634     0.79800
N1186       N  0.40319085  0.81375642  0.53854499    -0.78500
C1187       C  0.41238191  0.79536051  0.00359922     0.82300
N1188       N  0.41237469  0.81626803  0.96834425    -0.78400
C1189       C  0.39712239  0.85398697  0.96531408     0.82400
N1190       N  0.38595397  0.87380076  0.00177286    -0.80100
O1191       O  0.26383535  0.72654310  0.94275806    -0.72200
O1192       O  0.24231095  0.72561925  0.55622523    -0.72400
O1193       O  0.19684002  0.72918893  0.48569147    -0.72200
O1194       O  0.30766568  0.72308489  0.01263891    -0.72200
O1195       O  0.30983042  0.78914806  0.01364399    -0.72200
O1196       O  0.19899248  0.79525409  0.48673069    -0.72200
O1197       O  0.24283249  0.79180117  0.55660542    -0.72200
O1198       O  0.26433158  0.79272879  0.94313706    -0.72300
V1199       V  0.25238381  0.72688490  0.99932043     1.35200
V1200       V  0.25428243  0.79144334  0.00004211     1.35200
C1201       C  0.25603556  0.75988582  0.92461539     0.77100
C1202       C  0.25063176  0.75845699  0.57474503     0.77100
C1203       C  0.18060282  0.76278944  0.49483134     0.77000
C1204       C  0.32605595  0.75553934  0.00450537     0.77000
O1205       O  0.28938513  0.49614386  0.80392478    -0.72200
O1206       O  0.28331800  0.02324641  0.69313635    -0.72400
O1207       O  0.28590671  0.56608364  0.76018304    -0.72200
O1208       O  0.28691099  0.95264502  0.73852182    -0.72200
O1209       O  0.22072889  0.95220082  0.73902345    -0.72200
O1210       O  0.21972064  0.56564246  0.76066393    -0.72200
O1211       O  0.21725510  0.02213319  0.69526091    -0.72200
O1212       O  0.22332202  0.49506615  0.80606237    -0.72300
V1213       V  0.28559728  0.50953684  0.74865854     1.35200
V1214       V  0.22103892  0.50875250  0.75053413     1.35200
C1215       C  0.25691646  0.50421797  0.82231061     0.77100
C1216       C  0.24973360  0.01408411  0.67687755     0.77100
C1217       C  0.25255489  0.58421193  0.75240834     0.77000
C1218       C  0.25408190  0.93407971  0.74680837     0.77000
O1219       O  0.51740726  0.70261326  0.71982159    -0.72200
O1220       O  0.99052651  0.81343531  0.71334082    -0.72400
O1221       O  0.06037685  0.76961372  0.71711130    -0.72200
O1222       O  0.44690055  0.74813599  0.71591828    -0.72200
O1223       O  0.44634758  0.74872265  0.78209790    -0.72200
O1224       O  0.05981853  0.77023120  0.78328654    -0.72200
O1225       O  0.98928115  0.81573007  0.77939266    -0.72200
O1226       O  0.51620956  0.70492480  0.78587277    -0.72300
V1227       V  0.00381269  0.75815955  0.71733190     1.35200
V1228       V  0.00290582  0.76019296  0.78187785     1.35200
C1229       C  0.50817797  0.68646046  0.75344798     0.77100
C1230       C  0.99852199  0.83189687  0.74577870     0.77100
C1231       C  0.07842788  0.76186356  0.75050849     0.77000
C1232       C  0.42828872  0.75646889  0.74870369     0.77000
C1233       C  0.90967148  0.15534912  0.21663813     0.79800
N1234       N  0.89027375  0.14460971  0.25348343    -0.78500
C1235       C  0.91231162  0.14862459  0.29041304     0.82300
N1236       N  0.95161085  0.15933926  0.28880163    -0.78400
C1237       C  0.96947239  0.16812930  0.25348533     0.82400
N1238       N  0.94782964  0.16900014  0.21878961    -0.80100
C1239       C  0.71277514  0.41823742  0.13900853     0.79800
N1240       N  0.74970272  0.39620070  0.13495731    -0.78500
C1241       C  0.78655987  0.41559009  0.14566281     0.82300
N1242       N  0.78442494  0.45374284  0.15933634    -0.78400
C1243       C  0.74972276  0.47538712  0.15850256     0.82400
N1244       N  0.71440216  0.45753060  0.14972413    -0.80100
C1245       C  0.65558023  0.29498775  0.39731581     0.79800
N1246       N  0.69688609  0.29510781  0.39974390    -0.78500
C1247       C  0.71919357  0.26011304  0.39986854     0.82300
N1248       N  0.69998445  0.22378679  0.39593041    -0.78400
C1249       C  0.65889195  0.22114094  0.39360854     0.82400
N1250       N  0.63590177  0.25735188  0.39315878    -0.80100
C1251       C  0.61557204  0.16548575  0.46004356     0.79800
N1252       N  0.60352212  0.20451913  0.46073555    -0.78500
C1253       C  0.59429392  0.22288149  0.49567149     0.82300
N1254       N  0.59428488  0.20195423  0.03092328    -0.78400
C1255       C  0.60955468  0.16424545  0.03395746     0.82400
N1256       N  0.62076345  0.14445803  0.49750280    -0.80100
C1257       C  0.65348639  0.04975458  0.09687310     0.79800
N1258       N  0.65531841  0.04946182  0.05558190    -0.78500
C1259       C  0.65396146  0.01431789  0.03394936     0.82300
N1260       N  0.64927622  0.47836775  0.05382983    -0.78400
C1261       C  0.64788321  0.47602411  0.09492690     0.82400
N1262       N  0.64875735  0.01241046  0.11733108    -0.80100
C1263       C  0.90112521  0.35694318  0.21357094     0.79800
N1264       N  0.90354164  0.31563453  0.21343105    -0.78500
C1265       C  0.90352343  0.29329530  0.24840949     0.82300
N1266       N  0.89945526  0.31247306  0.28472940    -0.78400
C1267       C  0.89717719  0.35356162  0.28740025     0.82400
N1268       N  0.89686291  0.37658832  0.25120698    -0.80100
C1269       C  0.60053205  0.35906316  0.45908016     0.79800
N1270       N  0.55924683  0.35724214  0.45944631    -0.78500
C1271       C  0.53765692  0.35855474  0.49461836     0.82300
N1272       N  0.55758474  0.36320255  0.03054780    -0.78400
C1273       C  0.59869411  0.36468183  0.03281394     0.82400
N1274       N  0.62104192  0.36382489  0.49638360    -0.80100
O1275       O  0.94593506  0.24565750  0.47093636    -0.72200
O1276       O  0.55697525  0.26941262  0.46239398    -0.72400
O1277       O  0.01260257  0.20093510  0.46903048    -0.72200
O1278       O  0.49201752  0.31456980  0.46410297    -0.72200
O1279       O  0.49403646  0.31726304  0.03024226    -0.72200
O1280       O  0.01463668  0.20363205  0.03516648    -0.72200
O1281       O  0.56069832  0.27255389  0.02834084    -0.72200
O1282       O  0.94966067  0.24878249  0.03686992    -0.72300
V1283       V  0.50162138  0.25763092  0.46741461     1.35200
V1284       V  0.50501716  0.26056915  0.03185655     1.35200
C1285       C  0.93069423  0.25639439  0.50443229     0.77100
C1286       C  0.57594320  0.26184059  0.49484131     0.77100
C1287       C  0.00567527  0.18405974  0.00311625     0.77000
C1288       C  0.50097956  0.33413871  0.49615548     0.77000
C1289       C  0.84834354  0.47506597  0.10576954     0.79800
N1290       N  0.86807931  0.01152728  0.11706712    -0.78500
C1291       C  0.84699946  0.04896064  0.11193817     0.82300
N1292       N  0.80797604  0.04823565  0.09985953    -0.78400
C1293       C  0.78967137  0.01328547  0.09055508     0.82400
N1294       N  0.81063652  0.47807142  0.09049175    -0.80100
O1295       O  0.74317883  0.04649797  0.05316551    -0.72200
O1296       O  0.76684967  0.03771138  0.44213837    -0.72400
O1297       O  0.69799520  0.04477234  0.98827885    -0.72200
O1298       O  0.81162063  0.03964282  0.50881703    -0.72200
O1299       O  0.80880211  0.47350286  0.51090951    -0.72200
O1300       O  0.69517663  0.47863346  0.99036628    -0.72200
O1301       O  0.76361791  0.47177555  0.44600465    -0.72200
O1302       O  0.73994960  0.48055874  0.05703030    -0.72300
V1303       V  0.75493318  0.04136287  0.49782958     1.35200
V1304       V  0.75186622  0.47692621  0.50134445     1.35200
C1305       C  0.75071584  0.01408157  0.07220007     0.77100
C1306       C  0.75606775  0.00419141  0.42697256     0.77100
C1307       C  0.67837583  0.01275394  0.99727786     0.77000
C1308       C  0.82842695  0.00552131  0.50192294     0.77000
C1309       C  0.90613773  0.15919764  0.04022397     0.79800
N1310       N  0.94742404  0.16096761  0.03984265    -0.78500
C1311       C  0.96899928  0.15964320  0.00466399     0.82300
N1312       N  0.94905260  0.15500916  0.46874995    -0.78400
C1313       C  0.90794058  0.15357735  0.46649437     0.82400
N1314       N  0.88560547  0.15446367  0.00292811    -0.80100
C1315       C  0.85190045  0.36350033  0.15062204     0.45100
H1316       H  0.83176955  0.34508991  0.17091461    -0.03900
C1317       C  0.89782464  0.40736847  0.10268498     0.45100
H1318       H  0.91698358  0.42603612  0.08172802    -0.03900
C1319       C  0.83090360  0.40359550  0.13608196    -0.17600
C1320       C  0.89334046  0.37556988  0.17139976    -0.17400
C1321       C  0.86394945  0.34059156  0.11136083    -0.17800
C1322       C  0.85894357  0.43048154  0.11695606    -0.17700
C1323       C  0.92032533  0.39443255  0.14330306    -0.17300
C1324       C  0.88248127  0.36659457  0.08255633    -0.17600
C1325       C  0.84783070  0.29715828  0.10567932     0.79800
N1326       N  0.80673519  0.29452885  0.10337781    -0.78500
C1327       C  0.78750690  0.25821024  0.09945707     0.82300
N1328       N  0.80980026  0.22320521  0.09957702    -0.78400
C1329       C  0.85110919  0.22330822  0.10198449     0.82400
N1330       N  0.87080523  0.26093723  0.10612433    -0.80100
C1331       C  0.90152252  0.11242342  0.10537214     0.45100
H1332       H  0.92019898  0.09147421  0.08622929    -0.03900
C1333       C  0.85762074  0.16033861  0.15125899     0.45100
H1334       H  0.83919473  0.18061919  0.17137101    -0.03900
C1335       C  0.88855934  0.15302020  0.08284944    -0.17600
C1336       C  0.86076223  0.09227506  0.12069000    -0.17400
C1337       C  0.92461208  0.12668599  0.14426134    -0.17800
C1338       C  0.86970265  0.18112492  0.10981193    -0.17700
C1339       C  0.83473665  0.12105417  0.13921053    -0.17300
C1340       C  0.89770729  0.14580402  0.17228214    -0.17600
C1341       C  0.71746885  0.11153658  0.15199290     0.79800
N1342       N  0.71734705  0.10910976  0.19329553    -0.78500
C1343       C  0.75233734  0.10901006  0.21560396     0.82300
N1344       N  0.78866087  0.11299867  0.19639820    -0.78400
C1345       C  0.79130638  0.11532679  0.15530693     0.82400
N1346       N  0.75509957  0.11573451  0.13231475    -0.80100
C1347       C  0.54379440  0.10626681  0.34977360     0.79800
N1348       N  0.50647778  0.12677401  0.35445795    -0.78500
C1349       C  0.97005086  0.10441763  0.35527409     0.82300
N1350       N  0.97232422  0.06330903  0.35381762    -0.78400
C1351       C  0.50825951  0.04338556  0.34920147     0.82400
N1352       N  0.54343748  0.06497825  0.34795336    -0.80100
O1353       O  0.96610719  0.45555364  0.23929538    -0.72200
O1354       O  0.97462712  0.06655283  0.26320511    -0.72400
O1355       O  0.96786361  0.52055586  0.19422916    -0.72200
O1356       O  0.97267582  0.99982047  0.30784375    -0.72200
O1357       O  0.53882171  0.99780258  0.30518810    -0.72200
O1358       O  0.53400999  0.51855137  0.19157643    -0.72200
O1359       O  0.54057618  0.06282941  0.26012515    -0.72200
O1360       O  0.53206035  0.45183186  0.23620480    -0.72300
V1361       V  0.97111715  0.01088368  0.25115987     1.35200
V1362       V  0.53556838  0.00749428  0.24825916     1.35200
C1363       C  0.49854435  0.43656867  0.24686689     0.77100
C1364       C  0.50814146  0.08180956  0.25252691     0.77100
C1365       C  0.49994035  0.51161537  0.17468130     0.77000
C1366       C  0.50674781  0.00673936  0.32474164     0.77000
C1367       C  0.60949946  0.16470737  0.21186975     0.79800
N1368       N  0.60720115  0.20579824  0.21451341    -0.78500
C1369       C  0.60314419  0.22500098  0.25082281     0.82300
N1370       N  0.60313800  0.20268355  0.28581798    -0.78400
C1371       C  0.60556936  0.16137309  0.28570328     0.82400
N1372       N  0.60983238  0.14170682  0.24807869    -0.80100
C1373       C  0.65971884  0.46932843  0.38735513     0.79800
N1374       N  0.63864920  0.00676783  0.38222443    -0.78500
C1375       C  0.65841349  0.04322986  0.39347135     0.82300
N1376       N  0.69614069  0.04021919  0.40870430    -0.78400
C1377       C  0.71709075  0.00499467  0.40864917     0.82400
N1378       N  0.69875667  0.47004621  0.39939271    -0.80100
C1379       C  0.60892485  0.11092598  0.39658537     0.45100
H1380       H  0.58977670  0.09225213  0.41754489    -0.03900
C1381       C  0.65482191  0.15481453  0.34864027     0.45100
H1382       H  0.67494135  0.17323372  0.32834652    -0.03900
C1383       C  0.64779871  0.08781643  0.38228957    -0.17600
C1384       C  0.58640001  0.12388992  0.35598718    -0.17400
C1385       C  0.62427753  0.15168649  0.41672315    -0.17800
C1386       C  0.67582358  0.11470899  0.36315120    -0.17700
C1387       C  0.61336886  0.14276039  0.32788101    -0.17300
C1388       C  0.64279324  0.17770302  0.38791974    -0.17600
C1389       C  0.79393914  0.10003478  0.36019816     0.79600
N1390       N  0.75701969  0.12208086  0.36425809    -0.78500
C1391       C  0.72015727  0.10271405  0.35353709     0.82300
N1392       N  0.72227702  0.06456815  0.33984343    -0.78400
C1393       C  0.75696941  0.04290797  0.34067413     0.82400
N1394       N  0.79230037  0.06074451  0.34946583    -0.80100
C1395       C  0.85870406  0.15363437  0.35515415     0.45100
H1396       H  0.83899164  0.17335138  0.33543210    -0.03900
C1397       C  0.90495361  0.10738356  0.40141939     0.45100
H1398       H  0.92471961  0.08761783  0.42119080    -0.03900
C1399       C  0.89957572  0.13959708  0.33399606    -0.17600
C1400       C  0.87274786  0.17480593  0.39601050    -0.17400
C1401       C  0.83753598  0.11276071  0.36919794    -0.17800
C1402       C  0.92674393  0.12086120  0.36200488    -0.17700
C1403       C  0.89147347  0.14680730  0.42319745    -0.17300
C1404       C  0.86554863  0.08558764  0.38791259    -0.17600
C1405       C  0.85714262  0.29220262  0.40591812     0.79800
N1406       N  0.86782785  0.25531756  0.38658054    -0.78500
C1407       C  0.86379653  0.21842281  0.40868754     0.82300
N1408       N  0.85312964  0.22010718  0.44799370    -0.78400
C1409       C  0.84436896  0.25545793  0.46579417     0.82400
N1410       N  0.84350301  0.29012211  0.44408613    -0.80100
C1411       C  0.90011096  0.40345909  0.39761945     0.45100
H1412       H  0.92106307  0.42262567  0.41627612    -0.03900
C1413       C  0.85219725  0.35752648  0.35376522     0.45100
H1414       H  0.83191771  0.33739276  0.33535890    -0.03900
C1415       C  0.85948253  0.42593941  0.38468925    -0.17600
C1416       C  0.92024988  0.38813112  0.35686387    -0.17400
C1417       C  0.88587903  0.36457548  0.42073846    -0.17800
C1418       C  0.83139421  0.39895262  0.36584006    -0.17700
C1419       C  0.89146181  0.36961735  0.33084794    -0.17300
C1420       C  0.86674524  0.33652976  0.39387096    -0.17600
C1421       C  0.78921260  0.40674640  0.34724782     0.79800
N1422       N  0.78932162  0.40919298  0.30594398    -0.78500
C1423       C  0.75432173  0.40930121  0.28364643     0.82300
N1424       N  0.71800218  0.40531622  0.30286516    -0.78400
C1425       C  0.71537176  0.40296324  0.34395794     0.82400
N1426       N  0.75158765  0.40253996  0.36693450    -0.80100
C1427       C  0.60517360  0.40586803  0.39395130     0.45100
H1428       H  0.58650497  0.42681817  0.41310255    -0.03900
C1429       C  0.64905301  0.35795396  0.34804010     0.45100
H1430       H  0.66746754  0.33767443  0.32792083    -0.03900
C1431       C  0.58206729  0.39160453  0.35507070    -0.17600
C1432       C  0.64593661  0.42601309  0.37862007    -0.17400
C1433       C  0.61812954  0.36526541  0.41646368    -0.17800
C1434       C  0.60896320  0.37249949  0.32703291    -0.17700
C1435       C  0.67194787  0.39723347  0.36008029    -0.17300
C1436       C  0.63697778  0.33716485  0.38949019    -0.17600
C1437       C  0.96291992  0.41207365  0.14955260     0.79800
N1438       N  0.50024106  0.39158859  0.14482556    -0.78500
C1439       C  0.53666321  0.41395152  0.14405188     0.82300
N1440       N  0.53438386  0.45505689  0.14558476    -0.78400
C1441       C  0.49844051  0.47496381  0.15022559     0.82400
N1442       N  0.96326564  0.45335994  0.15145017    -0.80100
C1443       C  0.64797771  0.36467168  0.14412880     0.45100
H1444       H  0.66768840  0.34495536  0.16385274    -0.03900
C1445       C  0.60172856  0.41092453  0.09785493     0.45100
H1446       H  0.58196331  0.43069014  0.07808117    -0.03900
C1447       C  0.60713842  0.37877012  0.16530897    -0.17600
C1448       C  0.66917405  0.40551090  0.13002145    -0.17400
C1449       C  0.63387251  0.34347130  0.10330830    -0.17800
C1450       C  0.57996689  0.39750830  0.13730289    -0.17700
C1451       C  0.64116674  0.43268876  0.11130262    -0.17300
C1452       C  0.61515334  0.37146631  0.07611057    -0.17600
C1453       C  0.64281602  0.29985051  0.09063764     0.79800
N1454       N  0.63878068  0.26294697  0.11273207    -0.78500
C1455       C  0.64947250  0.22606875  0.09338040     0.82300
N1456       N  0.66312472  0.22816659  0.05521843    -0.78400
C1457       C  0.66226094  0.26284038  0.03352589     0.82400
N1458       N  0.65349322  0.29817937  0.05133743    -0.80100
C1459       C  0.59439633  0.36974204  0.20889020     0.79800
N1460       N  0.55509544  0.35903895  0.21048148    -0.78500
C1461       C  0.53721086  0.35024961  0.24578226     0.82300
N1462       N  0.55883357  0.34936889  0.28049079    -0.78400
C1463       C  0.59699916  0.36299872  0.28266500     0.82400
N1464       N  0.61642147  0.37373550  0.24583050    -0.80100
C1465       C  0.96358844  0.39681259  0.34311263     0.79800
N1466       N  0.50101138  0.39160406  0.36419201    -0.78500
C1467       C  0.53749879  0.40284402  0.34445878     0.82300
N1468       N  0.53452517  0.41816183  0.30676420    -0.78400
C1469       C  0.49931344  0.41815647  0.28579486     0.82400
N1470       N  0.96434448  0.40889549  0.30409210    -0.80100
C1471       C  0.85324163  0.46851433  0.40234746     0.79800
N1472       N  0.85147803  0.46881086  0.44363930    -0.78500
C1473       C  0.85285869  0.00395261  0.46526729     0.82300
N1474       N  0.85752800  0.03989862  0.44537886    -0.78400
C1475       C  0.85885372  0.04224423  0.40427975     0.82400
N1476       N  0.85793752  0.00585715  0.38187501    -0.80100
C1477       C  0.54309528  0.12141460  0.15620157     0.79800
N1478       N  0.50566781  0.12662547  0.13513135    -0.78500
C1479       C  0.96917826  0.11544481  0.15489372     0.82300
N1480       N  0.97215259  0.10018031  0.19261239    -0.78400
C1481       C  0.50737317  0.10017643  0.21356856     0.82400
N1482       N  0.54234337  0.10938033  0.19524022    -0.80100
C1483       C  0.65446786  0.16072883  0.14550042     0.45100
H1484       H  0.67474558  0.18086878  0.16390269    -0.03900
C1485       C  0.60656368  0.11477910  0.10165277     0.45100
H1486       H  0.58561525  0.09560706  0.08299638    -0.03900
C1487       C  0.63989075  0.18173123  0.10541237    -0.17600
C1488       C  0.67528897  0.11931756  0.13339890    -0.17400
C1489       C  0.61522022  0.14861860  0.16843261    -0.17800
C1490       C  0.62077395  0.15367719  0.07854075    -0.17700
C1491       C  0.64721183  0.09232006  0.11454881    -0.17300
C1492       C  0.58643376  0.13008514  0.14242881    -0.17600
C1493       C  0.89116960  0.35278210  0.03923359     0.79800
N1494       N  0.90319681  0.31374012  0.03853978    -0.78500
C1495       C  0.91237598  0.29537494  0.50360577     0.82300
N1496       N  0.91237047  0.31628091  0.46835016    -0.78400
C1497       C  0.89711995  0.35400003  0.46531753     0.82400
N1498       N  0.88594998  0.37381584  0.50177463    -0.80100
O1499       O  0.76383193  0.22655411  0.44275783    -0.72200
O1500       O  0.74231739  0.22560334  0.05622618    -0.72400
O1501       O  0.69684474  0.22917577  0.98569395    -0.72200
O1502       O  0.80766002  0.22309807  0.51263939    -0.72200
O1503       O  0.80982527  0.28916139  0.51364159    -0.72200
O1504       O  0.69899747  0.29524102  0.98673414    -0.72200
O1505       O  0.74283845  0.29178536  0.05660892    -0.72200
O1506       O  0.76432824  0.29273973  0.44313416    -0.72300
V1507       V  0.75237853  0.22689815  0.49931971     1.35200
V1508       V  0.75427729  0.29145660  0.50003899     1.35200
C1509       C  0.75603313  0.25989606  0.42461344     0.77100
C1510       C  0.75063852  0.25844050  0.07474699     0.77100
C1511       C  0.68060777  0.26277643  0.99483419     0.77000
C1512       C  0.82605078  0.25555192  0.50450488     0.77000
O1513       O  0.78939052  0.99614091  0.30392939    -0.72200
O1514       O  0.78332903  0.52322923  0.19313690    -0.72400
O1515       O  0.78591694  0.06607427  0.26017945    -0.72200
O1516       O  0.78691754  0.45263416  0.23852758    -0.72200
O1517       O  0.72073514  0.45219252  0.23902683    -0.72200
O1518       O  0.71973069  0.06563447  0.26066138    -0.72200
O1519       O  0.71726602  0.52212133  0.19526032    -0.72200
O1520       O  0.72332770  0.99506330  0.30606398    -0.72300
V1521       V  0.78560574  0.00952654  0.24866073     1.35200
V1522       V  0.72104726  0.00874462  0.25053441     1.35200
C1523       C  0.75692087  0.00421879  0.32231237     0.77100
C1524       C  0.74974426  0.51406763  0.17687852     0.77100
C1525       C  0.75256516  0.08420274  0.25240489     0.77000
C1526       C  0.75408726  0.43407029  0.24681254     0.77000
O1527       O  0.01740190  0.20261602  0.21981801    -0.72200
O1528       O  0.49051931  0.31343794  0.21334710    -0.72400
O1529       O  0.56037013  0.26961475  0.21710651    -0.72200
O1530       O  0.94689382  0.24813493  0.21592672    -0.72200
O1531       O  0.94634696  0.24872274  0.28210633    -0.72200
O1532       O  0.55981810  0.27023114  0.28328178    -0.72200
O1533       O  0.48928063  0.31572961  0.27939901    -0.72200
O1534       O  0.01620852  0.20492365  0.28586963    -0.72300
V1535       V  0.50380578  0.25816146  0.21733344     1.35200
V1536       V  0.50290537  0.26019231  0.28187968     1.35200
C1537       C  0.00817515  0.18646125  0.25344381     0.77100
C1538       C  0.49851940  0.33189758  0.24578509     0.77100
C1539       C  0.57842401  0.26186315  0.25050189     0.77000
C1540       C  0.92828492  0.25646817  0.24871382     0.77000
C1541       C  0.90967070  0.15535983  0.71664194     0.79800
N1542       N  0.89027333  0.14461666  0.75348600    -0.78500
C1543       C  0.91231256  0.14862436  0.79041528     0.82300
N1544       N  0.95161256  0.15933744  0.78880479    -0.78400
C1545       C  0.96947393  0.16813054  0.75348896     0.82400
N1546       N  0.94783058  0.16900596  0.71879406    -0.80100
C1547       C  0.71277073  0.41825323  0.63900571     0.79800
N1548       N  0.74969914  0.39621744  0.63495744    -0.78500
C1549       C  0.78655520  0.41560868  0.64566338     0.82300
N1550       N  0.78441811  0.45376225  0.65933438    -0.78400
C1551       C  0.74971507  0.47540491  0.65849942     0.82400
N1552       N  0.71439568  0.45754674  0.64972005    -0.80100
C1553       C  0.65558262  0.29498022  0.89731566     0.79800
N1554       N  0.69688849  0.29509923  0.89974561    -0.78500
C1555       C  0.71919501  0.26010367  0.89987175     0.82300
N1556       N  0.69998479  0.22377789  0.89593437    -0.78400
C1557       C  0.65889243  0.22113323  0.89361131     0.82400
N1558       N  0.63590328  0.25734473  0.89315934    -0.80100
C1559       C  0.61557471  0.16547565  0.96004572     0.79800
N1560       N  0.60352625  0.20450922  0.96073924    -0.78500
C1561       C  0.59429946  0.22287086  0.99567552     0.82300
N1562       N  0.59427916  0.20196559  0.53091976    -0.78400
C1563       C  0.60954921  0.16425712  0.53395558     0.82400
N1564       N  0.62076708  0.14444682  0.99750401    -0.80100
C1565       C  0.65348268  0.04976833  0.59687117     0.79800
N1566       N  0.65531702  0.04947605  0.55558010    -0.78500
C1567       C  0.65396008  0.01433236  0.53394723     0.82300
N1568       N  0.64927300  0.47838215  0.55382720    -0.78400
C1569       C  0.64787786  0.47603827  0.59492415     0.82400
N1570       N  0.64875180  0.01242423  0.61732851    -0.80100
C1571       C  0.90112484  0.35694725  0.71356795     0.79800
N1572       N  0.90354562  0.31563849  0.71342292    -0.78500
C1573       C  0.90352594  0.29329530  0.74839925     0.82300
N1574       N  0.89945369  0.31246873  0.78472088    -0.78400
C1575       C  0.89717447  0.35355657  0.78739648     0.82400
N1576       N  0.89685988  0.37658734  0.75120613    -0.80100
C1577       C  0.60053508  0.35905383  0.95908052     0.79800
N1578       N  0.55925002  0.35723108  0.95944745    -0.78500
C1579       C  0.53766062  0.35854050  0.99461992     0.82300
N1580       N  0.55758074  0.36321877  0.53054610    -0.78400
C1581       C  0.59869011  0.36469571  0.53281267     0.82400
N1582       N  0.62104544  0.36381428  0.99638419    -0.80100
O1583       O  0.94594198  0.24564396  0.97092864    -0.72200
O1584       O  0.55698242  0.26940161  0.96239690    -0.72400
O1585       O  0.01261008  0.20092173  0.96902697    -0.72200
O1586       O  0.49202322  0.31455625  0.96410175    -0.72200
O1587       O  0.49403470  0.31727835  0.53024328    -0.72200
O1588       O  0.01463163  0.20364708  0.53516995    -0.72200
O1589       O  0.56069598  0.27256694  0.52833764    -0.72200
O1590       O  0.94965812  0.24880011  0.53687730    -0.72300
V1591       V  0.50162852  0.25761782  0.96741214     1.35200
V1592       V  0.50501449  0.26058442  0.53185868     1.35200
C1593       C  0.93069912  0.25637936  0.00442407     0.77100
C1594       C  0.57594830  0.26182939  0.99484544     0.77100
C1595       C  0.00566908  0.18407403  0.50312042     0.77000
C1596       C  0.50098327  0.33412434  0.99615525     0.77000
C1597       C  0.84834156  0.47508473  0.60577478     0.79800
N1598       N  0.86807516  0.01154621  0.61707503    -0.78500
C1599       C  0.84699488  0.04897926  0.61194512     0.82300
N1600       N  0.80797258  0.04825419  0.59986354    -0.78400
C1601       C  0.78966965  0.01330400  0.59055651     0.82400
N1602       N  0.81063583  0.47809008  0.59049351    -0.80100
O1603       O  0.74317917  0.04651556  0.55316359    -0.72200
O1604       O  0.76684862  0.03770027  0.94213965    -0.72400
O1605       O  0.69799575  0.04478646  0.48827736    -0.72200
O1606       O  0.81162013  0.03962838  0.00881761    -0.72200
O1607       O  0.80880169  0.47348842  0.01090641    -0.72200
O1608       O  0.69517776  0.47864745  0.49036673    -0.72200
O1609       O  0.76361609  0.47176428  0.94600225    -0.72200
O1610       O  0.73994909  0.48057636  0.55703145    -0.72300
V1611       V  0.75493250  0.04134853  0.99783101     1.35200
V1612       V  0.75186549  0.47691184  0.00134265     1.35200
C1613       C  0.75071499  0.01409989  0.57219987     0.77100
C1614       C  0.75606615  0.00418141  0.92697207     0.77100
C1615       C  0.67837630  0.01276819  0.49727694     0.77000
C1616       C  0.82842643  0.00550742  0.00192114     0.77000
C1617       C  0.90613058  0.15921421  0.54022708     0.79800
N1618       N  0.94741679  0.16098515  0.53984696    -0.78500
C1619       C  0.96899334  0.15965751  0.50466929     0.82300
N1620       N  0.94905697  0.15499834  0.96874503    -0.78400
C1621       C  0.90794466  0.15356684  0.96649132     0.82400
N1622       N  0.88559978  0.15447705  0.50293046    -0.80100
C1623       C  0.85189438  0.36351656  0.65062444     0.45100
H1624       H  0.83176293  0.34510652  0.67091694    -0.03900
C1625       C  0.89781982  0.40738435  0.60268772     0.45100
H1626       H  0.91697818  0.42605028  0.58173234    -0.03900
C1627       C  0.83089996  0.40361417  0.63608702    -0.17600
C1628       C  0.89333709  0.37558016  0.67140016    -0.17400
C1629       C  0.86394000  0.34060947  0.61136176    -0.17800
C1630       C  0.85894088  0.43049984  0.61696236    -0.17700
C1631       C  0.92032164  0.39444307  0.64330359    -0.17300
C1632       C  0.88247288  0.36661218  0.58255788    -0.17600
C1633       C  0.84782194  0.29717616  0.60568044     0.79800
N1634       N  0.80672673  0.29454632  0.60337698    -0.78500
C1635       C  0.78749911  0.25822739  0.59945643     0.82300
N1636       N  0.80979291  0.22322241  0.59957859    -0.78400
C1637       C  0.85110178  0.22332594  0.60198834     0.82400
N1638       N  0.87079695  0.26095544  0.60612798    -0.80100
C1639       C  0.90151601  0.11244094  0.60537591     0.45100
H1640       H  0.92019054  0.09149149  0.58623264    -0.03900
C1641       C  0.85761684  0.16035708  0.65126505     0.45100
H1642       H  0.83919317  0.18063646  0.67137694    -0.03900
C1643       C  0.88855191  0.15303761  0.58285314    -0.17600
C1644       C  0.86075670  0.09229345  0.62069657    -0.17400
C1645       C  0.92460788  0.12670226  0.64426414    -0.17800
C1646       C  0.86969667  0.18114285  0.60981641    -0.17700
C1647       C  0.83473174  0.12107253  0.63921783    -0.17300
C1648       C  0.89770489  0.14582088  0.67228566    -0.17600
C1649       C  0.71746314  0.11155095  0.65199445     0.79800
N1650       N  0.71733873  0.10912041  0.69329704    -0.78500
C1651       C  0.75232780  0.10902101  0.71560775     0.82300
N1652       N  0.78865252  0.11301358  0.69640441    -0.78400
C1653       C  0.79130050  0.11534504  0.65531324     0.82400
N1654       N  0.75509491  0.11575240  0.63231911    -0.80100
C1655       C  0.54379408  0.10626072  0.84977484     0.79800
N1656       N  0.50647733  0.12676806  0.85445723    -0.78500
C1657       C  0.97005082  0.10441118  0.85527444     0.82300
N1658       N  0.97232463  0.06330269  0.85382177    -0.78400
C1659       C  0.50825975  0.04337925  0.84920631     0.82400
N1660       N  0.54343757  0.06497205  0.84795733    -0.80100
O1661       O  0.96610504  0.45555365  0.73929797    -0.72200
O1662       O  0.97462284  0.06655306  0.76320813    -0.72400
O1663       O  0.96785890  0.52055844  0.69423324    -0.72200
O1664       O  0.97267466  0.99981780  0.80784686    -0.72200
O1665       O  0.53882041  0.99779996  0.80518952    -0.72200
O1666       O  0.53400562  0.51855562  0.69157964    -0.72200
O1667       O  0.54057164  0.06283079  0.76012837    -0.72200
O1668       O  0.53205838  0.45183347  0.73620594    -0.72300
V1669       V  0.97111420  0.01088358  0.75116343     1.35200
V1670       V  0.53556533  0.00749545  0.74826154     1.35200
C1671       C  0.49854302  0.43656903  0.74686817     0.77100
C1672       C  0.50813659  0.08180985  0.75252831     0.77100
C1673       C  0.49993584  0.51162124  0.67468432     0.77000
C1674       C  0.50674710  0.00673488  0.82474451     0.77000
C1675       C  0.60949850  0.16471160  0.71187290     0.79800
N1676       N  0.60720692  0.20580213  0.71452022    -0.78500
C1677       C  0.60314920  0.22500248  0.75083064     0.82300
N1678       N  0.60313970  0.20268245  0.78582411    -0.78400
C1679       C  0.60556831  0.16137160  0.78570627     0.82400
N1680       N  0.60982876  0.14170775  0.74807984    -0.80100
C1681       C  0.65971669  0.46932097  0.88735406     0.79800
N1682       N  0.63864765  0.00676068  0.88222404    -0.78500
C1683       C  0.65841231  0.04322245  0.89347170     0.82300
N1684       N  0.69613939  0.04021106  0.90870520    -0.78400
C1685       C  0.71708897  0.00498617  0.90864920     0.82400
N1686       N  0.69875431  0.47003832  0.89939184    -0.80100
C1687       C  0.60892405  0.11091861  0.89658648     0.45100
H1688       H  0.58977664  0.09224554  0.91754515    -0.03900
C1689       C  0.65482125  0.15480876  0.84864202     0.45100
H1690       H  0.67493960  0.17322690  0.82835003    -0.03900
C1691       C  0.64779790  0.08780960  0.88229042    -0.17600
C1692       C  0.58639938  0.12388397  0.85598838    -0.17400
C1693       C  0.62427762  0.15167848  0.91672470    -0.17800
C1694       C  0.67582276  0.11470332  0.86315356    -0.17700
C1695       C  0.61336792  0.14275520  0.82788262    -0.17300
C1696       C  0.64279265  0.17769592  0.88792182    -0.17600
C1697       C  0.79393812  0.10002859  0.86020148     0.79600
N1698       N  0.75701933  0.12207582  0.86426199    -0.78500
C1699       C  0.72015646  0.10270980  0.85354068     0.82300
N1700       N  0.72227534  0.06456485  0.83984611    -0.78400
C1701       C  0.75696644  0.04290369  0.84067699     0.82400
N1702       N  0.79229808  0.06073865  0.84946896    -0.80100
C1703       C  0.85870393  0.15362646  0.85515458     0.45100
H1704       H  0.83899064  0.17334440  0.83543308    -0.03900
C1705       C  0.90495373  0.10737387  0.90141780     0.45100
H1706       H  0.92471999  0.08760730  0.92118898    -0.03900
C1707       C  0.89957575  0.13959107  0.83399634    -0.17600
C1708       C  0.87274854  0.17479676  0.89601009    -0.17400
C1709       C  0.83753588  0.11275288  0.86919841    -0.17800
C1710       C  0.92674361  0.12085318  0.86200409    -0.17700
C1711       C  0.89147504  0.14679755  0.92319600    -0.17300
C1712       C  0.86554860  0.08557855  0.88791137    -0.17600
C1713       C  0.85714058  0.29219257  0.90591663     0.79800
N1714       N  0.86782628  0.25530778  0.88657889    -0.78500
C1715       C  0.86379807  0.21841326  0.90868688     0.82300
N1716       N  0.85313357  0.22009724  0.94799338    -0.78400
C1717       C  0.84437197  0.25544733  0.96579397     0.82400
N1718       N  0.84350376  0.29011164  0.94408582    -0.80100
C1719       C  0.90010994  0.40344814  0.89761681     0.45100
H1720       H  0.92106280  0.42261469  0.91627327    -0.03900
C1721       C  0.85219513  0.35751700  0.85376216     0.45100
H1722       H  0.83191534  0.33738378  0.83535498    -0.03900
C1723       C  0.85948215  0.42592976  0.88468568    -0.17600
C1724       C  0.92024892  0.38811982  0.85686167    -0.17400
C1725       C  0.88587762  0.36456467  0.92073608    -0.17800
C1726       C  0.83139328  0.39894415  0.86583543    -0.17700
C1727       C  0.89146024  0.36960745  0.83084561    -0.17300
C1728       C  0.86674223  0.33651991  0.89386875    -0.17600
C1729       C  0.78921173  0.40674119  0.84724291     0.79800
N1730       N  0.78931968  0.40919727  0.80593908    -0.78500
C1731       C  0.75431866  0.40930937  0.78364241     0.82300
N1732       N  0.71799955  0.40532111  0.80286156    -0.78400
C1733       C  0.71537055  0.40295938  0.84395402     0.82400
N1734       N  0.75158709  0.40253083  0.86692922    -0.80100
C1735       C  0.60517330  0.40585911  0.89395042     0.45100
H1736       H  0.58650455  0.42680822  0.91310154    -0.03900
C1737       C  0.64905361  0.35794701  0.84803826     0.45100
H1738       H  0.66746962  0.33766653  0.82791713    -0.03900
C1739       C  0.58206681  0.39159528  0.85506979    -0.17600
C1740       C  0.64593535  0.42600558  0.87861824    -0.17400
C1741       C  0.61813133  0.36525715  0.91646299    -0.17800
C1742       C  0.60896341  0.37249226  0.82703129    -0.17700
C1743       C  0.67194741  0.39722693  0.86007750    -0.17300
C1744       C  0.63698029  0.33715740  0.88948905    -0.17600
C1745       C  0.96291680  0.41208262  0.64955260     0.79800
N1746       N  0.50023809  0.39159768  0.64482568    -0.78500
C1747       C  0.53665992  0.41396133  0.64405185     0.82300
N1748       N  0.53437983  0.45506658  0.64558391    -0.78400
C1749       C  0.49843630  0.47497290  0.65022513     0.82400
N1750       N  0.96326217  0.45336864  0.65144959    -0.80100
C1751       C  0.64797598  0.36468507  0.64412569     0.45100
H1752       H  0.66768750  0.34496945  0.66384850    -0.03900
C1753       C  0.60172430  0.41093746  0.59785369     0.45100
H1754       H  0.58195808  0.43070293  0.57808053    -0.03900
C1755       C  0.60713725  0.37878191  0.66530722    -0.17600
C1756       C  0.66917040  0.40552519  0.63001832    -0.17400
C1757       C  0.63386977  0.34348490  0.60330561    -0.17800
C1758       C  0.57996418  0.39751975  0.63730211    -0.17700
C1759       C  0.64116214  0.43270259  0.61130013    -0.17300
C1760       C  0.61514947  0.37147978  0.57610883    -0.17600
C1761       C  0.64281185  0.29986394  0.59063508     0.79800
N1762       N  0.63877545  0.26296071  0.61272966    -0.78500
C1763       C  0.64946561  0.22608193  0.59337815     0.82300
N1764       N  0.66311771  0.22817933  0.55521573    -0.78400
C1765       C  0.66225509  0.26285320  0.53352308     0.82400
N1766       N  0.65348864  0.29819245  0.55133477    -0.80100
C1767       C  0.59439636  0.36974941  0.70888780     0.79800
N1768       N  0.55509608  0.35904462  0.71047792    -0.78500
C1769       C  0.53721209  0.35025061  0.74577769     0.82300
N1770       N  0.55883490  0.34936673  0.78048602    -0.78400
C1771       C  0.59700019  0.36299660  0.78266191     0.82400
N1772       N  0.61642193  0.37373883  0.74582853    -0.80100
C1773       C  0.96358752  0.39680221  0.84311034     0.79800
N1774       N  0.50101055  0.39159259  0.86418930    -0.78500
C1775       C  0.53749803  0.40283524  0.84445765     0.82300
N1776       N  0.53452437  0.41815738  0.80676453    -0.78400
C1777       C  0.49931254  0.41815316  0.78579486     0.82400
N1778       N  0.96434368  0.40888896  0.80409093    -0.80100
C1779       C  0.85324148  0.46850457  0.90234414     0.79800
N1780       N  0.85147718  0.46880011  0.94363586    -0.78500
C1781       C  0.85285730  0.00394114  0.96526471     0.82300
N1782       N  0.85752604  0.03988791  0.94537719    -0.78400
C1783       C  0.85885317  0.04223457  0.90427798     0.82400
N1784       N  0.85793776  0.00584781  0.88187249    -0.80100
C1785       C  0.54309075  0.12142217  0.65620390     0.79800
N1786       N  0.50566310  0.12663763  0.63513539    -0.78500
C1787       C  0.96917321  0.11545535  0.65489608     0.82300
N1788       N  0.97214710  0.10018502  0.69261312    -0.78400
C1789       C  0.50736850  0.10017704  0.71356895     0.82400
N1790       N  0.54233901  0.10938251  0.69524123    -0.80100
C1791       C  0.65446189  0.16074181  0.64549960     0.45100
H1792       H  0.67473946  0.18088192  0.66390120    -0.03900
C1793       C  0.60655811  0.11479109  0.60165256     0.45100
H1794       H  0.58561069  0.09561908  0.58299718    -0.03900
C1795       C  0.63988306  0.18174451  0.60541154    -0.17600
C1796       C  0.67528424  0.11933153  0.63339761    -0.17400
C1797       C  0.61521588  0.14862794  0.66843352    -0.17800
C1798       C  0.62076695  0.15368990  0.57854014    -0.17700
C1799       C  0.64720761  0.09233354  0.61454721    -0.17300
C1800       C  0.58642888  0.13009509  0.64243030    -0.17600
C1801       C  0.89116363  0.35279855  0.53923633     0.79800
N1802       N  0.90319080  0.31375638  0.53854502    -0.78500
C1803       C  0.91238170  0.29536059  0.00359924     0.82300
N1804       N  0.91237463  0.31626809  0.96834422    -0.78400
C1805       C  0.89712236  0.35398698  0.96531411     0.82400
N1806       N  0.88595386  0.37380074  0.00177288    -0.80100
O1807       O  0.76383525  0.22654300  0.94275811    -0.72200
O1808       O  0.74231087  0.22561926  0.55622515    -0.72400
O1809       O  0.69683997  0.22918874  0.48569161    -0.72200
O1810       O  0.80766558  0.22308490  0.01263899    -0.72200
O1811       O  0.80983014  0.28914823  0.01364404    -0.72200
O1812       O  0.69899240  0.29525406  0.48673074    -0.72200
O1813       O  0.74283238  0.29180121  0.55660550    -0.72200
O1814       O  0.76433135  0.29272872  0.94313718    -0.72300
V1815       V  0.75238368  0.22688480  0.99932050     1.35200
V1816       V  0.75428213  0.29144329  0.00004215     1.35200
C1817       C  0.75603556  0.25988576  0.92461540     0.77100
C1818       C  0.75063169  0.25845699  0.57474500     0.77100
C1819       C  0.68060274  0.26278941  0.49483133     0.77000
C1820       C  0.82605569  0.25553948  0.00450538     0.77000
O1821       O  0.78938495  0.99614384  0.80392477    -0.72200
O1822       O  0.78331798  0.52324642  0.69313632    -0.72400
O1823       O  0.78590648  0.06608363  0.76018306    -0.72200
O1824       O  0.78691103  0.45264501  0.73852173    -0.72200
O1825       O  0.72072893  0.45220092  0.73902347    -0.72200
O1826       O  0.71972041  0.06564248  0.76066401    -0.72200
O1827       O  0.71725510  0.52213331  0.69526098    -0.72200
O1828       O  0.72332197  0.99506613  0.80606233    -0.72300
V1829       V  0.78559716  0.00953686  0.74865854     1.35200
V1830       V  0.72103878  0.00875244  0.75053410     1.35200
C1831       C  0.75691636  0.00421798  0.82231060     0.77100
C1832       C  0.74973356  0.51408415  0.67687759     0.77100
C1833       C  0.75255460  0.08421188  0.75240825     0.77000
C1834       C  0.75408194  0.43407977  0.74680834     0.77000
O1835       O  0.01740712  0.20261332  0.71982160    -0.72200
O1836       O  0.49052648  0.31343521  0.71334087    -0.72400
O1837       O  0.56037664  0.26961367  0.71711120    -0.72200
O1838       O  0.94690028  0.24813612  0.71591830    -0.72200
O1839       O  0.94634756  0.24872276  0.78209790    -0.72200
O1840       O  0.55981826  0.27023120  0.78328641    -0.72200
O1841       O  0.48928090  0.31573017  0.77939255    -0.72200
O1842       O  0.01620938  0.20492472  0.78587267    -0.72300
V1843       V  0.50381253  0.25815952  0.71733181     1.35200
V1844       V  0.50290561  0.26019296  0.78187771     1.35200
C1845       C  0.00817777  0.18646046  0.75344789     0.77100
C1846       C  0.49852190  0.33189690  0.74577861     0.77100
C1847       C  0.57842762  0.26186349  0.75050836     0.77000
C1848       C  0.92828856  0.25646893  0.74870381     0.77000
C1849       C  0.90967193  0.65534929  0.21663819     0.79800
N1850       N  0.89027416  0.64460983  0.25348346    -0.78500
C1851       C  0.91231199  0.64862475  0.29041307     0.82300
N1852       N  0.95161131  0.65933927  0.28880169    -0.78400
C1853       C  0.96947285  0.66812936  0.25348539     0.82400
N1854       N  0.94783012  0.66900021  0.21878968    -0.80100
C1855       C  0.71277535  0.91823732  0.13900851     0.79800
N1856       N  0.74970292  0.89620065  0.13495737    -0.78500
C1857       C  0.78656011  0.91559007  0.14566272     0.82300
N1858       N  0.78442513  0.95374286  0.15933639    -0.78400
C1859       C  0.74972297  0.97538703  0.15850261     0.82400
N1860       N  0.71440232  0.95753058  0.14972408    -0.80100
C1861       C  0.65558026  0.79498774  0.39731587     0.79800
N1862       N  0.69688613  0.79510781  0.39974396    -0.78500
C1863       C  0.71919364  0.76011308  0.39986851     0.82300
N1864       N  0.69998446  0.72378690  0.39593038    -0.78400
C1865       C  0.65889197  0.72114100  0.39360852     0.82400
N1866       N  0.63590177  0.75735194  0.39315877    -0.80100
C1867       C  0.61557223  0.66548576  0.46004360     0.79800
N1868       N  0.60352223  0.70451911  0.46073564    -0.78500
C1869       C  0.59429411  0.72288146  0.49567153     0.82300
N1870       N  0.59428508  0.70195420  0.03092337    -0.78400
C1871       C  0.60955492  0.66424547  0.03395747     0.82400
N1872       N  0.62076369  0.64445802  0.49750286    -0.80100
C1873       C  0.65348640  0.54975455  0.09687323     0.79800
N1874       N  0.65531852  0.54946190  0.05558208    -0.78500
C1875       C  0.65396123  0.51431796  0.03394940     0.82300
N1876       N  0.64927627  0.97836762  0.05382989    -0.78400
C1877       C  0.64788331  0.97602414  0.09492689     0.82400
N1878       N  0.64875737  0.51241046  0.11733115    -0.80100
C1879       C  0.90112543  0.85694307  0.21357089     0.79800
N1880       N  0.90354193  0.81563442  0.21343097    -0.78500
C1881       C  0.90352376  0.79329521  0.24840943     0.82300
N1882       N  0.89945548  0.81247302  0.28472937    -0.78400
C1883       C  0.89717728  0.85356150  0.28740021     0.82400
N1884       N  0.89686306  0.87658819  0.25120695    -0.80100
C1885       C  0.60053210  0.85906322  0.45908018     0.79800
N1886       N  0.55924686  0.85724212  0.45944637    -0.78500
C1887       C  0.53765697  0.85855473  0.49461845     0.82300
N1888       N  0.55758491  0.86320256  0.03054789    -0.78400
C1889       C  0.59869426  0.86468186  0.03281394     0.82400
N1890       N  0.62104202  0.86382484  0.49638362    -0.80100
O1891       O  0.94593518  0.74565750  0.47093646    -0.72200
O1892       O  0.55697542  0.76941263  0.46239433    -0.72400
O1893       O  0.01260254  0.70093511  0.46903056    -0.72200
O1894       O  0.49201776  0.81456979  0.46410301    -0.72200
O1895       O  0.49403654  0.81726306  0.03024223    -0.72200
O1896       O  0.01463682  0.70363200  0.03516657    -0.72200
O1897       O  0.56069840  0.77255380  0.02834100    -0.72200
O1898       O  0.94966091  0.74878245  0.03686995    -0.72300
V1899       V  0.50162153  0.75763091  0.46741473     1.35200
V1900       V  0.50501725  0.76056910  0.03185662     1.35200
C1901       C  0.93069423  0.75639438  0.50443234     0.77100
C1902       C  0.57594335  0.76184053  0.49484163     0.77100
C1903       C  0.00567540  0.68405971  0.00311627     0.77000
C1904       C  0.50097953  0.83413881  0.49615547     0.77000
C1905       C  0.84834367  0.97506596  0.10576954     0.79800
N1906       N  0.86807920  0.51152726  0.11706735    -0.78500
C1907       C  0.84699945  0.54896062  0.11193836     0.82300
N1908       N  0.80797612  0.54823592  0.09985965    -0.78400
C1909       C  0.78967134  0.51328566  0.09055514     0.82400
N1910       N  0.81063660  0.97807113  0.09049166    -0.80100
O1911       O  0.74317890  0.54649832  0.05316553    -0.72200
O1912       O  0.76684985  0.53771133  0.44213832    -0.72400
O1913       O  0.69799514  0.54477252  0.98827888    -0.72200
O1914       O  0.81162089  0.53964295  0.50881696    -0.72200
O1915       O  0.80880198  0.97350283  0.51090942    -0.72200
O1916       O  0.69517682  0.97863328  0.99036618    -0.72200
O1917       O  0.76361788  0.97177555  0.44600465    -0.72200
O1918       O  0.73994990  0.98055846  0.05703004    -0.72300
V1919       V  0.75493340  0.54136290  0.49782954     1.35200
V1920       V  0.75186606  0.97692617  0.50134438     1.35200
C1921       C  0.75071582  0.51408199  0.07220017     0.77100
C1922       C  0.75606795  0.50419138  0.42697247     0.77100
C1923       C  0.67837571  0.51275426  0.99727793     0.77000
C1924       C  0.82842714  0.50552140  0.50192297     0.77000
C1925       C  0.90613795  0.65919734  0.04022394     0.79800
N1926       N  0.94742426  0.66096742  0.03984269    -0.78500
C1927       C  0.96899952  0.65964306  0.00466407     0.82300
N1928       N  0.94905268  0.65500923  0.46874996    -0.78400
C1929       C  0.90794061  0.65357732  0.46649438     0.82400
N1930       N  0.88560566  0.65446368  0.00292807    -0.80100
C1931       C  0.85190060  0.86350027  0.15062213     0.45100
H1932       H  0.83177031  0.84509069  0.17091406    -0.03900
C1933       C  0.89782492  0.90736852  0.10268493     0.45100
H1934       H  0.91698326  0.92603562  0.08172893    -0.03900
C1935       C  0.83090385  0.90359552  0.13608193    -0.17600
C1936       C  0.89334069  0.87557003  0.17139979    -0.17400
C1937       C  0.86394967  0.84059156  0.11136076    -0.17800
C1938       C  0.85894372  0.93048145  0.11695609    -0.17700
C1939       C  0.92032553  0.89443247  0.14330309    -0.17300
C1940       C  0.88248144  0.86659448  0.08255632    -0.17600
C1941       C  0.84783089  0.79715827  0.10567932     0.79800
N1942       N  0.80673542  0.79452886  0.10337780    -0.78500
C1943       C  0.78750714  0.75821025  0.09945708     0.82300
N1944       N  0.80980050  0.72320521  0.09957700    -0.78400
C1945       C  0.85110940  0.72330822  0.10198449     0.82400
N1946       N  0.87080544  0.76093724  0.10612433    -0.80100
C1947       C  0.90152277  0.61242323  0.10537220     0.45100
H1948       H  0.92019851  0.59147469  0.08623025    -0.03900
C1949       C  0.85762088  0.66033885  0.15125929     0.45100
H1950       H  0.83919558  0.68061839  0.17137048    -0.03900
C1951       C  0.88855948  0.65302016  0.08284951    -0.17600
C1952       C  0.86076232  0.59227512  0.12069023    -0.17400
C1953       C  0.92461233  0.62668595  0.14426150    -0.17800
C1954       C  0.86970290  0.68112492  0.10981195    -0.17700
C1955       C  0.83473687  0.62105423  0.13921064    -0.17300
C1956       C  0.89770776  0.64580423  0.17228217    -0.17600
C1957       C  0.71746897  0.61153676  0.15199297     0.79800
N1958       N  0.71734713  0.60910975  0.19329562    -0.78500
C1959       C  0.75233735  0.60901010  0.21560411     0.82300
N1960       N  0.78866102  0.61299876  0.19639840    -0.78400
C1961       C  0.79130653  0.61532691  0.15530714     0.82400
N1962       N  0.75509977  0.61573473  0.13231488    -0.80100
C1963       C  0.54379464  0.60626684  0.34977348     0.79800
N1964       N  0.50647805  0.62677404  0.35445799    -0.78500
C1965       C  0.97005119  0.60441767  0.35527411     0.82300
N1966       N  0.97232450  0.56330910  0.35381760    -0.78400
C1967       C  0.50825974  0.54338564  0.34920121     0.82400
N1968       N  0.54343773  0.56497830  0.34795326    -0.80100
O1969       O  0.96610709  0.95555361  0.23929536    -0.72200
O1970       O  0.97462757  0.56655277  0.26320513    -0.72400
O1971       O  0.96786340  0.02055585  0.19422908    -0.72200
O1972       O  0.97267612  0.49982042  0.30784372    -0.72200
O1973       O  0.53882191  0.49780241  0.30518806    -0.72200
O1974       O  0.53400982  0.01855163  0.19157646    -0.72200
O1975       O  0.54057659  0.56282925  0.26012501    -0.72200
O1976       O  0.53206044  0.95183222  0.23620478    -0.72300
V1977       V  0.97111747  0.51088366  0.25115989     1.35200
V1978       V  0.53556857  0.50749404  0.24825911     1.35200
C1979       C  0.49854460  0.93656880  0.24686689     0.77100
C1980       C  0.50814186  0.58180949  0.25252684     0.77100
C1981       C  0.49994020  0.01161558  0.17468133     0.77000
C1982       C  0.50674799  0.50673929  0.32474158     0.77000
C1983       C  0.60949958  0.66470751  0.21186975     0.79800
N1984       N  0.60720165  0.70579835  0.21451350    -0.78500
C1985       C  0.60314462  0.72500118  0.25082290     0.82300
N1986       N  0.60313843  0.70268369  0.28581801    -0.78400
C1987       C  0.60556976  0.66137324  0.28570326     0.82400
N1988       N  0.60983266  0.64170687  0.24807864    -0.80100
C1989       C  0.65971867  0.96932845  0.38735511     0.79800
N1990       N  0.63864938  0.50676780  0.38222443    -0.78500
C1991       C  0.65841368  0.54322985  0.39347136     0.82300
N1992       N  0.69614084  0.54021915  0.40870437    -0.78400
C1993       C  0.71709089  0.50499466  0.40864926     0.82400
N1994       N  0.69875651  0.97004625  0.39939262    -0.80100
C1995       C  0.60892507  0.61092600  0.39658536     0.45100
H1996       H  0.58977696  0.59225220  0.41754480    -0.03900
C1997       C  0.65482209  0.65481455  0.34864022     0.45100
H1998       H  0.67494120  0.67323361  0.32834636    -0.03900
C1999       C  0.64779898  0.58781646  0.38228961    -0.17600
C2000       C  0.58640023  0.62388991  0.35598712    -0.17400
C2001       C  0.62427772  0.65168654  0.41672318    -0.17800
C2002       C  0.67582386  0.61470900  0.36315127    -0.17700
C2003       C  0.61336903  0.64276044  0.32788101    -0.17300
C2004       C  0.64279343  0.67770305  0.38791975    -0.17600
C2005       C  0.79393943  0.60003474  0.36019814     0.79600
N2006       N  0.75701999  0.62208083  0.36425807    -0.78500
C2007       C  0.72015755  0.60271397  0.35353717     0.82300
N2008       N  0.72227720  0.56456812  0.33984339    -0.78400
C2009       C  0.75696955  0.54290788  0.34067426     0.82400
N2010       N  0.79230055  0.56074449  0.34946584    -0.80100
C2011       C  0.85870425  0.65363440  0.35515405     0.45100
H2012       H  0.83899235  0.67335097  0.33543268    -0.03900
C2013       C  0.90495388  0.60738349  0.40141947     0.45100
H2014       H  0.92471912  0.58761817  0.42119044    -0.03900
C2015       C  0.89957603  0.63959714  0.33399606    -0.17600
C2016       C  0.87274801  0.67480581  0.39601052    -0.17400
C2017       C  0.83753634  0.61276060  0.36919776    -0.17800
C2018       C  0.92674415  0.62086126  0.36200484    -0.17700
C2019       C  0.89147366  0.64680730  0.42319741    -0.17300
C2020       C  0.86554884  0.58558770  0.38791260    -0.17600
C2021       C  0.85714260  0.79220265  0.40591802     0.79800
N2022       N  0.86782804  0.75531754  0.38658050    -0.78500
C2023       C  0.86379651  0.71842277  0.40868745     0.82300
N2024       N  0.85312981  0.72010710  0.44799364    -0.78400
C2025       C  0.84436890  0.75545792  0.46579409     0.82400
N2026       N  0.84350318  0.79012208  0.44408608    -0.80100
C2027       C  0.90011096  0.90345910  0.39761946     0.45100
H2028       H  0.92106320  0.92262574  0.41627601    -0.03900
C2029       C  0.85219736  0.85752647  0.35376520     0.45100
H2030       H  0.83191791  0.83739256  0.33535878    -0.03900
C2031       C  0.85948252  0.92593943  0.38468921    -0.17600
C2032       C  0.92024990  0.88813113  0.35686389    -0.17400
C2033       C  0.88587902  0.86457545  0.42073847    -0.17800
C2034       C  0.83139420  0.89895258  0.36584010    -0.17700
C2035       C  0.89146191  0.86961728  0.33084796    -0.17300
C2036       C  0.86674529  0.83652975  0.39387089    -0.17600
C2037       C  0.78921268  0.90674636  0.34724786     0.79800
N2038       N  0.78932163  0.90919296  0.30594401    -0.78500
C2039       C  0.75432181  0.90930118  0.28364646     0.82300
N2040       N  0.71800213  0.90531620  0.30286520    -0.78400
C2041       C  0.71537181  0.90296330  0.34395796     0.82400
N2042       N  0.75158765  0.90253995  0.36693450    -0.80100
C2043       C  0.60517368  0.90586801  0.39395130     0.45100
H2044       H  0.58650497  0.92681814  0.41310258    -0.03900
C2045       C  0.64905289  0.85795402  0.34804020     0.45100
H2046       H  0.66746791  0.83767338  0.32792018    -0.03900
C2047       C  0.58206738  0.89160450  0.35507074    -0.17600
C2048       C  0.64593659  0.92601310  0.37862008    -0.17400
C2049       C  0.61812958  0.86526544  0.41646366    -0.17800
C2050       C  0.60896331  0.87249953  0.32703287    -0.17700
C2051       C  0.67194790  0.89723343  0.36008028    -0.17300
C2052       C  0.63697781  0.83716482  0.38949014    -0.17600
C2053       C  0.96292014  0.91207368  0.14955256     0.79800
N2054       N  0.50024121  0.89158860  0.14482558    -0.78500
C2055       C  0.53666333  0.91395165  0.14405200     0.82300
N2056       N  0.53438392  0.95505706  0.14558489    -0.78400
C2057       C  0.49844048  0.97496396  0.15022574     0.82400
N2058       N  0.96326579  0.95335997  0.15145015    -0.80100
C2059       C  0.64797793  0.86467164  0.14412886     0.45100
H2060       H  0.66768804  0.84495579  0.16385206    -0.03900
C2061       C  0.60172870  0.91092469  0.09785485     0.45100
H2062       H  0.58196429  0.93068969  0.07808186    -0.03900
C2063       C  0.60713860  0.87877025  0.16530897    -0.17600
C2064       C  0.66917420  0.90551095  0.13002148    -0.17400
C2065       C  0.63387253  0.84347135  0.10330831    -0.17800
C2066       C  0.57996706  0.89750823  0.13730290    -0.17700
C2067       C  0.64116700  0.93268875  0.11130271    -0.17300
C2068       C  0.61515346  0.87146630  0.07611062    -0.17600
C2069       C  0.64281620  0.79985057  0.09063773     0.79800
N2070       N  0.63878090  0.76294699  0.11273208    -0.78500
C2071       C  0.64947273  0.72606882  0.09338034     0.82300
N2072       N  0.66312493  0.72816673  0.05521834    -0.78400
C2073       C  0.66226110  0.76284055  0.03352588     0.82400
N2074       N  0.65349338  0.79817951  0.05133749    -0.80100
C2075       C  0.59439648  0.86974210  0.20889022     0.79800
N2076       N  0.55509558  0.85903901  0.21048147    -0.78500
C2077       C  0.53721091  0.85024959  0.24578223     0.82300
N2078       N  0.55883362  0.84936895  0.28049077    -0.78400
C2079       C  0.59699919  0.86299876  0.28266500     0.82400
N2080       N  0.61642162  0.87373561  0.24583051    -0.80100
C2081       C  0.96358842  0.89681260  0.34311261     0.79800
N2082       N  0.50101145  0.89160409  0.36419197    -0.78500
C2083       C  0.53749885  0.90284406  0.34445880     0.82300
N2084       N  0.53452520  0.91816196  0.30676429    -0.78400
C2085       C  0.49931345  0.91815654  0.28579485     0.82400
N2086       N  0.96434455  0.90889551  0.30409210    -0.80100
C2087       C  0.85324154  0.96851434  0.40234745     0.79800
N2088       N  0.85147789  0.96881078  0.44363927    -0.78500
C2089       C  0.85285887  0.50395265  0.46526727     0.82300
N2090       N  0.85752825  0.53989866  0.44537876    -0.78400
C2091       C  0.85885400  0.54224422  0.40427967     0.82400
N2092       N  0.85793767  0.50585713  0.38187494    -0.80100
C2093       C  0.54309557  0.62141471  0.15620158     0.79800
N2094       N  0.50566812  0.62662558  0.13513135    -0.78500
C2095       C  0.96917855  0.61544484  0.15489374     0.82300
N2096       N  0.97215290  0.60018028  0.19261239    -0.78400
C2097       C  0.50737352  0.60017637  0.21356853     0.82400
N2098       N  0.54234363  0.60938035  0.19524017    -0.80100
C2099       C  0.65446809  0.66072884  0.14550037     0.45100
H2100       H  0.67474606  0.68086883  0.16390283    -0.03900
C2101       C  0.60656392  0.61477922  0.10165287     0.45100
H2102       H  0.58561519  0.59560694  0.08299638    -0.03900
C2103       C  0.63989107  0.68173127  0.10541234    -0.17600
C2104       C  0.67528918  0.61931763  0.13339881    -0.17400
C2105       C  0.61522040  0.64861884  0.16843258    -0.17800
C2106       C  0.62077424  0.65367720  0.07854075    -0.17700
C2107       C  0.64721196  0.59232012  0.11454881    -0.17300
C2108       C  0.58643403  0.63008517  0.14242889    -0.17600
C2109       C  0.89116980  0.85278207  0.03923355     0.79800
N2110       N  0.90319697  0.81374001  0.03853981    -0.78500
C2111       C  0.91237612  0.79537499  0.50360580     0.82300
N2112       N  0.91237059  0.81628089  0.46835014    -0.78400
C2113       C  0.89711990  0.85399994  0.46531753     0.82400
N2114       N  0.88595005  0.87381582  0.50177463    -0.80100
O2115       O  0.76383201  0.72655424  0.44275765    -0.72200
O2116       O  0.74231762  0.72560346  0.05622620    -0.72400
O2117       O  0.69684495  0.72917591  0.98569386    -0.72200
O2118       O  0.80766017  0.72309806  0.51263938    -0.72200
O2119       O  0.80982530  0.78916143  0.51364167    -0.72200
O2120       O  0.69899771  0.79524121  0.98673423    -0.72200
O2121       O  0.74283875  0.79178544  0.05660900    -0.72200
O2122       O  0.76432838  0.79273997  0.44313424    -0.72300
V2123       V  0.75237865  0.72689825  0.49931961     1.35200
V2124       V  0.75427741  0.79145668  0.50003899     1.35200
C2125       C  0.75603331  0.75989632  0.42461337     0.77100
C2126       C  0.75063871  0.75844057  0.07474710     0.77100
C2127       C  0.68060806  0.76277657  0.99483425     0.77000
C2128       C  0.82605089  0.75555191  0.50450494     0.77000
O2129       O  0.78939053  0.49614088  0.30392935    -0.72200
O2130       O  0.78332921  0.02322924  0.19313696    -0.72400
O2131       O  0.78591690  0.56607425  0.26017955    -0.72200
O2132       O  0.78691755  0.95263405  0.23852762    -0.72200
O2133       O  0.72073517  0.95219262  0.23902681    -0.72200
O2134       O  0.71973067  0.56563453  0.26066146    -0.72200
O2135       O  0.71726616  0.02212131  0.19526028    -0.72200
O2136       O  0.72332770  0.49506334  0.30606405    -0.72300
V2137       V  0.78560570  0.50952656  0.24866073     1.35200
V2138       V  0.72104723  0.50874461  0.25053448     1.35200
C2139       C  0.75692091  0.50421874  0.32231241     0.77100
C2140       C  0.74974443  0.01406755  0.17687862     0.77100
C2141       C  0.75256520  0.58420271  0.25240489     0.77000
C2142       C  0.75408715  0.93407026  0.24681253     0.77000
O2143       O  0.01740224  0.70261609  0.21981800    -0.72200
O2144       O  0.49051975  0.81343791  0.21334706    -0.72400
O2145       O  0.56037056  0.76961492  0.21710659    -0.72200
O2146       O  0.94689408  0.74813496  0.21592665    -0.72200
O2147       O  0.94634733  0.74872273  0.28210642    -0.72200
O2148       O  0.55981835  0.77023128  0.28328184    -0.72200
O2149       O  0.48928089  0.81572961  0.27939899    -0.72200
O2150       O  0.01620898  0.70492357  0.28586964    -0.72300
V2151       V  0.50380625  0.75816150  0.21733339     1.35200
V2152       V  0.50290572  0.76019229  0.28187968     1.35200
C2153       C  0.00817555  0.68646127  0.25344380     0.77100
C2154       C  0.49851956  0.83189762  0.24578506     0.77100
C2155       C  0.57842437  0.76186334  0.25050198     0.77000
C2156       C  0.92828524  0.75646814  0.24871389     0.77000
C2157       C  0.90967090  0.65535987  0.71664192     0.79800
N2158       N  0.89027351  0.64461668  0.75348600    -0.78500
C2159       C  0.91231274  0.64862437  0.79041528     0.82300
N2160       N  0.95161274  0.65933742  0.78880482    -0.78400
C2161       C  0.96947416  0.66813050  0.75348899     0.82400
N2162       N  0.94783079  0.66900597  0.71879410    -0.80100
C2163       C  0.71277089  0.91825314  0.63900570     0.79800
N2164       N  0.74969927  0.89621729  0.63495753    -0.78500
C2165       C  0.78655523  0.91560881  0.64566328     0.82300
N2166       N  0.78441801  0.95376230  0.65933449    -0.78400
C2167       C  0.74971500  0.97540495  0.65849942     0.82400
N2168       N  0.71439574  0.95754660  0.64972000    -0.80100
C2169       C  0.65558260  0.79498030  0.89731578     0.79800
N2170       N  0.69688854  0.79509930  0.89974567    -0.78500
C2171       C  0.71919499  0.76010374  0.89987170     0.82300
N2172       N  0.69998486  0.72377793  0.89593429    -0.78400
C2173       C  0.65889242  0.72113323  0.89361142     0.82400
N2174       N  0.63590335  0.75734476  0.89315952    -0.80100
C2175       C  0.61557476  0.66547568  0.96004572     0.79800
N2176       N  0.60352636  0.70450924  0.96073929    -0.78500
C2177       C  0.59429954  0.72287086  0.99567559     0.82300
N2178       N  0.59427921  0.70196545  0.53091977    -0.78400
C2179       C  0.60954948  0.66425715  0.53395559     0.82400
N2180       N  0.62076732  0.64444687  0.99750400    -0.80100
C2181       C  0.65348296  0.54976849  0.59687133     0.79800
N2182       N  0.65531738  0.54947620  0.55558027    -0.78500
C2183       C  0.65396032  0.51433257  0.53394729     0.82300
N2184       N  0.64927288  0.97838199  0.55382720    -0.78400
C2185       C  0.64787786  0.97603811  0.59492417     0.82400
N2186       N  0.64875190  0.51242435  0.61732862    -0.80100
C2187       C  0.90112484  0.85694716  0.71356794     0.79800
N2188       N  0.90354569  0.81563848  0.71342294    -0.78500
C2189       C  0.90352599  0.79329524  0.74839935     0.82300
N2190       N  0.89945388  0.81246868  0.78472090    -0.78400
C2191       C  0.89717462  0.85355649  0.78739649     0.82400
N2192       N  0.89686003  0.87658729  0.75120607    -0.80100
C2193       C  0.60053516  0.85905383  0.95908061     0.79800
N2194       N  0.55925012  0.85723108  0.95944763    -0.78500
C2195       C  0.53766075  0.85854054  0.99462002     0.82300
N2196       N  0.55758080  0.86321877  0.53054613    -0.78400
C2197       C  0.59869022  0.86469563  0.53281273     0.82400
N2198       N  0.62104559  0.86381428  0.99638424    -0.80100
O2199       O  0.94594220  0.74564381  0.97092877    -0.72200
O2200       O  0.55698266  0.76940162  0.96239695    -0.72400
O2201       O  0.01261019  0.70092166  0.96902692    -0.72200
O2202       O  0.49202340  0.81455626  0.96410189    -0.72200
O2203       O  0.49403470  0.81727841  0.53024329    -0.72200
O2204       O  0.01463178  0.70364703  0.53517003    -0.72200
O2205       O  0.56069596  0.77256680  0.52833781    -0.72200
O2206       O  0.94965809  0.74880017  0.53687738    -0.72300
V2207       V  0.50162872  0.75761778  0.96741224     1.35200
V2208       V  0.50501448  0.76058439  0.53185872     1.35200
C2209       C  0.93069937  0.75637928  0.00442418     0.77100
C2210       C  0.57594849  0.76182944  0.99484558     0.77100
C2211       C  0.00566911  0.68407407  0.50312048     0.77000
C2212       C  0.50098333  0.83412445  0.99615535     0.77000
C2213       C  0.84834147  0.97508474  0.60577473     0.79800
N2214       N  0.86807525  0.51154618  0.61707513    -0.78500
C2215       C  0.84699509  0.54897926  0.61194526     0.82300
N2216       N  0.80797282  0.54825431  0.59986367    -0.78400
C2217       C  0.78966991  0.51330413  0.59055646     0.82400
N2218       N  0.81063575  0.97808997  0.59049338    -0.80100
O2219       O  0.74317940  0.54651571  0.55316354    -0.72200
O2220       O  0.76684851  0.53770038  0.94213969    -0.72400
O2221       O  0.69799599  0.54478647  0.48827739    -0.72200
O2222       O  0.81162001  0.53962858  0.00881756    -0.72200
O2223       O  0.80880178  0.97348822  0.01090620    -0.72200
O2224       O  0.69517756  0.97864740  0.49036677    -0.72200
O2225       O  0.76361623  0.97176431  0.94600213    -0.72200
O2226       O  0.73994891  0.98057618  0.55703134    -0.72300
V2227       V  0.75493244  0.54134879  0.99783101     1.35200
V2228       V  0.75186564  0.97691167  0.00134249     1.35200
C2229       C  0.75071523  0.51410014  0.57219990     0.77100
C2230       C  0.75606600  0.50418144  0.92697221     0.77100
C2231       C  0.67837652  0.51276822  0.49727699     0.77000
C2232       C  0.82842629  0.50550769  0.00192115     0.77000
C2233       C  0.90613061  0.65921424  0.54022705     0.79800
N2234       N  0.94741690  0.66098518  0.53984689    -0.78500
C2235       C  0.96899343  0.65965752  0.50466927     0.82300
N2236       N  0.94905722  0.65499823  0.96874513    -0.78400
C2237       C  0.90794493  0.65356665  0.96649134     0.82400
N2238       N  0.88559976  0.65447704  0.50293046    -0.80100
C2239       C  0.85189447  0.86351645  0.65062450     0.45100
H2240       H  0.83176386  0.84510701  0.67091625    -0.03900
C2241       C  0.89781982  0.90738437  0.60268766     0.45100
H2242       H  0.91697814  0.92605040  0.58173219    -0.03900
C2243       C  0.83090008  0.90361426  0.63608701    -0.17600
C2244       C  0.89333727  0.87558011  0.67140006    -0.17400
C2245       C  0.86394016  0.84060947  0.61136169    -0.17800
C2246       C  0.85894090  0.93049984  0.61696226    -0.17700
C2247       C  0.92032170  0.89444311  0.64330355    -0.17300
C2248       C  0.88247282  0.86661224  0.58255781    -0.17600
C2249       C  0.84782205  0.79717618  0.60568031     0.79800
N2250       N  0.80672678  0.79454632  0.60337687    -0.78500
C2251       C  0.78749925  0.75822738  0.59945623     0.82300
N2252       N  0.80979297  0.72322240  0.59957852    -0.78400
C2253       C  0.85110188  0.72332596  0.60198836     0.82400
N2254       N  0.87079703  0.76095546  0.60612799    -0.80100
C2255       C  0.90151621  0.61244105  0.60537593     0.45100
H2256       H  0.92019093  0.59149154  0.58623250    -0.03900
C2257       C  0.85761700  0.66035711  0.65126504     0.45100
H2258       H  0.83919324  0.68063652  0.67137703    -0.03900
C2259       C  0.88855199  0.65303767  0.58285313    -0.17600
C2260       C  0.86075697  0.59229346  0.62069662    -0.17400
C2261       C  0.92460811  0.62670229  0.64426413    -0.17800
C2262       C  0.86969670  0.68114289  0.60981642    -0.17700
C2263       C  0.83473197  0.62107256  0.63921782    -0.17300
C2264       C  0.89770511  0.64582100  0.67228562    -0.17600
C2265       C  0.71746333  0.61155102  0.65199456     0.79800
N2266       N  0.71733897  0.60912055  0.69329719    -0.78500
C2267       C  0.75232799  0.60902116  0.71560786     0.82300
N2268       N  0.78865278  0.61301355  0.69640439    -0.78400
C2269       C  0.79130069  0.61534504  0.65531325     0.82400
N2270       N  0.75509513  0.61575251  0.63231918    -0.80100
C2271       C  0.54379421  0.60626065  0.84977487     0.79800
N2272       N  0.50647743  0.62676805  0.85445704    -0.78500
C2273       C  0.97005101  0.60441117  0.85527442     0.82300
N2274       N  0.97232479  0.56330271  0.85382178    -0.78400
C2275       C  0.50825998  0.54337921  0.84920612     0.82400
N2276       N  0.54343773  0.56497199  0.84795718    -0.80100
O2277       O  0.96610520  0.95555358  0.73929807    -0.72200
O2278       O  0.97462294  0.56655302  0.76320795    -0.72400
O2279       O  0.96785896  0.02055832  0.69423349    -0.72200
O2280       O  0.97267464  0.49981790  0.80784677    -0.72200
O2281       O  0.53882059  0.49779992  0.80518917    -0.72200
O2282       O  0.53400558  0.01855562  0.69157992    -0.72200
O2283       O  0.54057190  0.56283078  0.76012814    -0.72200
O2284       O  0.53205837  0.95183352  0.73620610    -0.72300
V2285       V  0.97111419  0.51088363  0.75116327     1.35200
V2286       V  0.53556537  0.50749543  0.74826130     1.35200
C2287       C  0.49854299  0.93656908  0.74686835     0.77100
C2288       C  0.50813683  0.58180986  0.75252823     0.77100
C2289       C  0.49993583  0.01162124  0.67468449     0.77000
C2290       C  0.50674732  0.50673494  0.82474426     0.77000
C2291       C  0.60949873  0.66471178  0.71187290     0.79800
N2292       N  0.60720713  0.70580224  0.71452039    -0.78500
C2293       C  0.60314941  0.72500258  0.75083079     0.82300
N2294       N  0.60313992  0.70268252  0.78582427    -0.78400
C2295       C  0.60556854  0.66137171  0.78570628     0.82400
N2296       N  0.60982898  0.64170786  0.74807981    -0.80100
C2297       C  0.65971673  0.96932098  0.88735429     0.79800
N2298       N  0.63864764  0.50676069  0.88222392    -0.78500
C2299       C  0.65841233  0.54322243  0.89347158     0.82300
N2300       N  0.69613936  0.54021105  0.90870520    -0.78400
C2301       C  0.71708889  0.50498616  0.90864918     0.82400
N2302       N  0.69875440  0.97003830  0.89939188    -0.80100
C2303       C  0.60892416  0.61091874  0.89658636     0.45100
H2304       H  0.58977595  0.59224529  0.91754561    -0.03900
C2305       C  0.65482135  0.65480872  0.84864207     0.45100
H2306       H  0.67493973  0.67322689  0.82835020    -0.03900
C2307       C  0.64779796  0.58780959  0.88229045    -0.17600
C2308       C  0.58639945  0.62388399  0.85598835    -0.17400
C2309       C  0.62427759  0.65167844  0.91672474    -0.17800
C2310       C  0.67582288  0.61470329  0.86315358    -0.17700
C2311       C  0.61336805  0.64275523  0.82788259    -0.17300
C2312       C  0.64279270  0.67769587  0.88792188    -0.17600
C2313       C  0.79393823  0.60002864  0.86020147     0.79600
N2314       N  0.75701946  0.62207587  0.86426201    -0.78500
C2315       C  0.72015663  0.60270978  0.85354078     0.82300
N2316       N  0.72227556  0.56456481  0.83984620    -0.78400
C2317       C  0.75696661  0.54290366  0.84067703     0.82400
N2318       N  0.79229820  0.56073867  0.84946895    -0.80100
C2319       C  0.85870414  0.65362652  0.85515453     0.45100
H2320       H  0.83899170  0.67334401  0.83543352    -0.03900
C2321       C  0.90495395  0.60737382  0.90141783     0.45100
H2322       H  0.92472013  0.58760728  0.92118892    -0.03900
C2323       C  0.89957601  0.63959102  0.83399639    -0.17600
C2324       C  0.87274884  0.67479668  0.89601015    -0.17400
C2325       C  0.83753605  0.61275288  0.86919843    -0.17800
C2326       C  0.92674382  0.62085319  0.86200410    -0.17700
C2327       C  0.89147530  0.64679749  0.92319604    -0.17300
C2328       C  0.86554872  0.58557857  0.88791138    -0.17600
C2329       C  0.85714070  0.79219247  0.90591662     0.79800
N2330       N  0.86782647  0.75530768  0.88657891    -0.78500
C2331       C  0.86379831  0.71841315  0.90868688     0.82300
N2332       N  0.85313379  0.72009715  0.94799336    -0.78400
C2333       C  0.84437214  0.75544723  0.96579393     0.82400
N2334       N  0.84350389  0.79011159  0.94408581    -0.80100
C2335       C  0.90011016  0.90344822  0.89761686     0.45100
H2336       H  0.92106195  0.92261392  0.91627248    -0.03900
C2337       C  0.85219514  0.85751682  0.85376204     0.45100
H2338       H  0.83191551  0.83738386  0.83535507    -0.03900
C2339       C  0.85948213  0.92592954  0.88468565    -0.17600
C2340       C  0.92024901  0.88811983  0.85686158    -0.17400
C2341       C  0.88587765  0.86456459  0.92073601    -0.17800
C2342       C  0.83139328  0.89894398  0.86583538    -0.17700
C2343       C  0.89146040  0.86960736  0.83084558    -0.17300
C2344       C  0.86674229  0.83651985  0.89386871    -0.17600
C2345       C  0.78921178  0.90674106  0.84724282     0.79800
N2346       N  0.78931969  0.90919722  0.80593899    -0.78500
C2347       C  0.75431866  0.90930926  0.78364240     0.82300
N2348       N  0.71799954  0.90532112  0.80286168    -0.78400
C2349       C  0.71537060  0.90295943  0.84395414     0.82400
N2350       N  0.75158714  0.90253086  0.86692923    -0.80100
C2351       C  0.60517342  0.90585909  0.89395056     0.45100
H2352       H  0.58650408  0.92680891  0.91310257    -0.03900
C2353       C  0.64905374  0.85794699  0.84803841     0.45100
H2354       H  0.66746932  0.83766717  0.82791815    -0.03900
C2355       C  0.58206679  0.89159539  0.85507000    -0.17600
C2356       C  0.64593530  0.92600569  0.87861832    -0.17400
C2357       C  0.61813128  0.86525723  0.91646318    -0.17800
C2358       C  0.60896338  0.87249222  0.82703151    -0.17700
C2359       C  0.67194746  0.89722700  0.86007778    -0.17300
C2360       C  0.63698020  0.83715748  0.88948922    -0.17600
C2361       C  0.96291675  0.91208267  0.64955263     0.79800
N2362       N  0.50023821  0.89159763  0.64482580    -0.78500
C2363       C  0.53666015  0.91396123  0.64405204     0.82300
N2364       N  0.53438000  0.95506649  0.64558416    -0.78400
C2365       C  0.49843650  0.97497285  0.65022531     0.82400
N2366       N  0.96326220  0.95336868  0.65144961    -0.80100
C2367       C  0.64797605  0.86468510  0.64412573     0.45100
H2368       H  0.66768907  0.84496810  0.66384952    -0.03900
C2369       C  0.60172439  0.91093739  0.59785391     0.45100
H2370       H  0.58195841  0.93070244  0.57808134    -0.03900
C2371       C  0.60713743  0.87878154  0.66530745    -0.17600
C2372       C  0.66917065  0.90552503  0.63001846    -0.17400
C2373       C  0.63386989  0.84348477  0.60330586    -0.17800
C2374       C  0.57996435  0.89751956  0.63730236    -0.17700
C2375       C  0.64116231  0.93270248  0.61130027    -0.17300
C2376       C  0.61514954  0.87147971  0.57610900    -0.17600
C2377       C  0.64281207  0.79986394  0.59063507     0.79800
N2378       N  0.63877570  0.76296061  0.61272961    -0.78500
C2379       C  0.64946584  0.72608194  0.59337799     0.82300
N2380       N  0.66311780  0.72817937  0.55521563    -0.78400
C2381       C  0.66225513  0.76285333  0.53352296     0.82400
N2382       N  0.65348883  0.79819247  0.55133478    -0.80100
C2383       C  0.59439636  0.86974940  0.70888795     0.79800
N2384       N  0.55509624  0.85904449  0.71047809    -0.78500
C2385       C  0.53721209  0.85025062  0.74577774     0.82300
N2386       N  0.55883494  0.84936670  0.78048612    -0.78400
C2387       C  0.59700014  0.86299658  0.78266200     0.82400
N2388       N  0.61642208  0.87373868  0.74582867    -0.80100
C2389       C  0.96358768  0.89680223  0.84311037     0.79800
N2390       N  0.50101062  0.89159245  0.86418938    -0.78500
C2391       C  0.53749805  0.90283524  0.84445778     0.82300
N2392       N  0.53452438  0.91815737  0.80676467    -0.78400
C2393       C  0.49931257  0.91815310  0.78579495     0.82400
N2394       N  0.96434377  0.90888879  0.80409094    -0.80100
C2395       C  0.85324174  0.96850448  0.90234417     0.79800
N2396       N  0.85147736  0.96879997  0.94363585    -0.78500
C2397       C  0.85285715  0.50394117  0.96526471     0.82300
N2398       N  0.85752608  0.53988802  0.94537720    -0.78400
C2399       C  0.85885317  0.54223460  0.90427801     0.82400
N2400       N  0.85793788  0.50584787  0.88187252    -0.80100
C2401       C  0.54309100  0.62142235  0.65620393     0.79800
N2402       N  0.50566335  0.62663791  0.63513545    -0.78500
C2403       C  0.96917349  0.61545551  0.65489612     0.82300
N2404       N  0.97214737  0.60018508  0.69261306    -0.78400
C2405       C  0.50736876  0.60017700  0.71356889     0.82400
N2406       N  0.54233927  0.60938263  0.69524117    -0.80100
C2407       C  0.65446207  0.66074191  0.64549954     0.45100
H2408       H  0.67473942  0.68088232  0.66390135    -0.03900
C2409       C  0.60655838  0.61479119  0.60165268     0.45100
H2410       H  0.58561075  0.59561886  0.58299729    -0.03900
C2411       C  0.63988346  0.68174450  0.60541144    -0.17600
C2412       C  0.67528452  0.61933164  0.63339765    -0.17400
C2413       C  0.61521603  0.64862823  0.66843343    -0.17800
C2414       C  0.62076711  0.65368997  0.57854018    -0.17700
C2415       C  0.64720785  0.59233364  0.61454732    -0.17300
C2416       C  0.58642913  0.63009516  0.64243031    -0.17600
C2417       C  0.89116377  0.85279860  0.53923635     0.79800
N2418       N  0.90319081  0.81375641  0.53854504    -0.78500
C2419       C  0.91238197  0.79536048  0.00359928     0.82300
N2420       N  0.91237471  0.81626795  0.96834429    -0.78400
C2421       C  0.89712251  0.85398695  0.96531411     0.82400
N2422       N  0.88595403  0.87380075  0.00177287    -0.80100
O2423       O  0.76383542  0.72654311  0.94275804    -0.72200
O2424       O  0.74231103  0.72561925  0.55622521    -0.72400
O2425       O  0.69684012  0.72918894  0.48569146    -0.72200
O2426       O  0.80766565  0.72308493  0.01263892    -0.72200
O2427       O  0.80983038  0.78914812  0.01364399    -0.72200
O2428       O  0.69899257  0.79525406  0.48673072    -0.72200
O2429       O  0.74283259  0.79180117  0.55660543    -0.72200
O2430       O  0.76433156  0.79272879  0.94313708    -0.72300
V2431       V  0.75238382  0.72688488  0.99932044     1.35200
V2432       V  0.75428237  0.79144335  0.00004213     1.35200
C2433       C  0.75603556  0.75988583  0.92461541     0.77100
C2434       C  0.75063178  0.75845698  0.57474501     0.77100
C2435       C  0.68060288  0.76278942  0.49483132     0.77000
C2436       C  0.82605588  0.75553941  0.00450534     0.77000
O2437       O  0.78938521  0.49614390  0.80392478    -0.72200
O2438       O  0.78331783  0.02324643  0.69313633    -0.72400
O2439       O  0.78590677  0.56608368  0.76018304    -0.72200
O2440       O  0.78691091  0.95264502  0.73852178    -0.72200
O2441       O  0.72072881  0.95220082  0.73902350    -0.72200
O2442       O  0.71972071  0.56564243  0.76066394    -0.72200
O2443       O  0.71725493  0.02213315  0.69526093    -0.72200
O2444       O  0.72332210  0.49506610  0.80606237    -0.72300
V2445       V  0.78559734  0.50953686  0.74865853     1.35200
V2446       V  0.72103894  0.50875248  0.75053413     1.35200
C2447       C  0.75691656  0.50421797  0.82231060     0.77100
C2448       C  0.74973342  0.01408411  0.67687755     0.77100
C2449       C  0.75255494  0.58421194  0.75240834     0.77000
C2450       C  0.75408183  0.93407972  0.74680838     0.77000
O2451       O  0.01740724  0.70261328  0.71982156    -0.72200
O2452       O  0.49052652  0.81343530  0.71334080    -0.72400
O2453       O  0.56037680  0.76961380  0.71711136    -0.72200
O2454       O  0.94690033  0.74813603  0.71591830    -0.72200
O2455       O  0.94634768  0.74872271  0.78209790    -0.72200
O2456       O  0.55981851  0.77023118  0.78328662    -0.72200
O2457       O  0.48928105  0.81573010  0.77939263    -0.72200
O2458       O  0.01620957  0.70492479  0.78587274    -0.72300
V2459       V  0.50381275  0.75815955  0.71733189     1.35200
V2460       V  0.50290577  0.76019296  0.78187787     1.35200
C2461       C  0.00817801  0.68646046  0.75344795     0.77100
C2462       C  0.49852207  0.83189684  0.74577868     0.77100
C2463       C  0.57842782  0.76186354  0.75050855     0.77000
C2464       C  0.92828862  0.75646887  0.74870375     0.77000
loop_ 
_geom_bond_atom_site_label_1 
_geom_bond_atom_site_label_2 
_geom_bond_distance 
_geom_bond_site_symmetry_2 
_ccdc_geom_bond_type 
C1            N2   1.405       .  A
C1            N6   1.326       .  A
C1          C108   1.532       .  S
N2            C3   1.408       .  A
C3            N4   1.332       .  A
C3          C167   1.512       .  S
N4            C5   1.325       .  A
C5            N6   1.332       .  A
C5          C305   1.400       .  S
C7            N8   1.408       .  A
C7           N12   1.332       .  A
C7          C216   1.512       .  S
N8            C9   1.405       .  A
C9           N10   1.326       .  A
C9           C87   1.532       .  S
N10          C11   1.333       .  A
C11          N12   1.325       .  A
C11         C292   1.400       .  S
C13          N14   1.350       .  A
C13          N18   1.396       .  A
C13         C204   1.522       .  S
N14          C15   1.352       .  A
C15          N16   1.350       .  A
C15         C277   1.446       .  S
N16          C17   1.346       .  A
C17          N18   1.397       .  A
C17         C156   1.526       .  S
C19          N20   1.332       .  A
C19          N24   1.409       .  A
C19         C153   1.514       .  S
N20          C21   1.326       .  A
C21         N330   1.335       .  A
C21          C54   1.403       .  S
N22          C23   1.329       .  A
N22         C329   1.335   1_554  A
C23         N332   1.406   1_554  A
C23         C258   1.537       .  S
N24         C331   1.406       .  A
C25          N26   1.349       .  A
C25          N30   1.397       .  A
C25         C259   1.520       .  S
N26          C27   1.351       .  A
C27         N644   1.348   1_545  A
C27          C75   1.442   1_554  S
N28          C29   1.344       .  A
N28         C643   1.348       .  A
C29         N646   1.398       .  A
C29         C219   1.527       .  S
N30         C645   1.398   1_545  A
C31          N32   1.350       .  A
C31          N36   1.396       .  A
C31          C88   1.522       .  S
N32          C33   1.352       .  A
C33          N34   1.350       .  A
C33         C308   1.446       .  S
N34          C35   1.346       .  A
C35          N36   1.397       .  A
C35         C187   1.526       .  S
C37          N38   1.349       .  A
C37          N42   1.397       .  A
C37         C201   1.520       .  S
N38          C39   1.350       .  A
C39         N348   1.348       .  A
C39          C56   1.442       .  S
N40          C41   1.345       .  A
N40         C347   1.348   1_554  A
C41         N350   1.398   1_554  A
C41         C220   1.527       .  S
N42         C349   1.398       .  A
O43          C53   1.254       .  A
O43        V1283   1.865       .  S
O44          C54   1.248       .  A
O44          V51   1.857       .  S
O45         C363   1.261       .  A
O45        V1283   1.884       .  S
O46          C56   1.262   1_655  A
O46          V51   1.886   1_655  S
O47         C364   1.261   1_654  A
O47          V52   1.884   1_655  S
O48          C55   1.262       .  A
O48        V1284   1.886       .  S
O49         C362   1.254   1_554  A
O49          V52   1.865       .  S
O50         C361   1.248       .  A
O50        V1284   1.857       .  S
V51        O1275   1.865   1_455  S
V51        O1277   1.884       .  S
V51         V360   2.109       .  T
V52        O1280   1.886       .  S
V52        O1282   1.857   1_455  S
V52         V359   2.109   1_554  T
C53         C263   1.404       .  S
C53         O358   1.248       .  A
C54         O357   1.254       .  A
C55          C79   1.442       .  S
C55         O353   1.261   1_554  A
C56         O355   1.261   1_455  A
C57          N62   1.329       .  A
C57         N674   1.406       .  A
C57          C90   1.536       .  S
N58          C59   1.409       .  A
N58         C673   1.406   1_545  A
C59          N60   1.332       .  A
C59         C104   1.513       .  S
N60          C61   1.326       .  A
C61         N678   1.335   1_545  A
C61          C73   1.403       .  S
N62         C677   1.335       .  A
O63          C73   1.248       .  A
O63         V379   1.856   1_554  S
O64          C74   1.254       .  A
O64          V71   1.865       .  S
O65          C75   1.262       .  A
O65         V379   1.886       .  S
O66          C76   1.261       .  A
O66          V71   1.884       .  S
O67         C692   1.262       .  A
O67          V72   1.886       .  S
O68         C691   1.261       .  A
O68         V380   1.884   1_556  S
O69         C690   1.248       .  A
O69          V72   1.857       .  S
O70         C689   1.254       .  A
O70         V380   1.865       .  S
V71         O371   1.856       .  S
V71         O373   1.886       .  S
V71         V688   2.109   1_545  T
V72         O376   1.884       .  S
V72         O378   1.865       .  S
V72         V687   2.109       .  T
C73         O686   1.254   1_545  A
C74         C145   1.404       .  S
C74         O685   1.248   1_545  A
C75         O684   1.261   1_545  A
C76         C241   1.442       .  S
C76         O683   1.262   1_545  A
C77          N78   1.349       .  A
C77          N82   1.397       .  A
C77         C103   1.520       .  S
N78          C79   1.350       .  A
C79         N388   1.348   1_554  A
N80          C81   1.345       .  A
N80         C387   1.348       .  A
C81         N390   1.398       .  A
C81         C171   1.527       .  S
N82         C389   1.398   1_554  A
C83          H84   1.111       .  S
C83          C89   1.538       .  S
C83          C88   1.563       .  S
C83          C87   1.547       .  S
C85          H86   1.111       .  S
C85          C91   1.568       .  S
C85          C90   1.548       .  S
C85          C92   1.570       .  S
C87          C90   1.416       .  D
C88          C91   1.415       .  D
C89          C93   1.526       .  S
C89          C92   1.404       .  D
C91         C205   1.520       .  S
C92         C261   1.514       .  S
C93          N94   1.346       .  A
C93          N98   1.397       .  A
N94          C95   1.350       .  A
C95          N96   1.352       .  A
C95         C278   1.446       .  S
N96          C97   1.350       .  A
C97          N98   1.396       .  A
C97         C106   1.522       .  S
C99         H100   1.110       .  S
C99         C105   1.548       .  S
C99         C104   1.569       .  S
C99         C103   1.568       .  S
C101        H102   1.111       .  S
C101        C107   1.539       .  S
C101        C106   1.564       .  S
C101        C108   1.547       .  S
C103        C106   1.415       .  D
C104        C107   1.404       .  D
C105        C247   1.537       .  S
C105        C108   1.416       .  D
C107        C113   1.526       .  S
C109        N110   1.350       .  A
C109        N114   1.395       .  A
C109        C256   1.522       .  S
N110        C111   1.352       .  A
C111        N112   1.350       .  A
C111        C293   1.446       .  S
N112        C113   1.346       .  A
C113        N114   1.397       .  A
C115        N116   1.397       .  A
C115        N120   1.349       .  A
C115        C152   1.520       .  S
N116       C1349   1.398   1_455  A
C117        N118   1.345       .  A
C117       N1348   1.398       .  A
C117        C170   1.527       .  S
N118       C1351   1.348       .  A
C119        N120   1.350       .  A
C119       N1350   1.348   1_455  A
C119        C134   1.442       .  S
O121       C1363   1.248       .  A
O121        V745   1.857       .  S
O122       C1364   1.254       .  A
O122        V129   1.865       .  S
O123       C1365   1.262       .  A
O123        V745   1.886       .  S
O124       C1366   1.261   1_565  A
O124        V129   1.884   1_565  S
O125        C134   1.262   1_565  A
O125        V130   1.886   1_565  S
O126        C133   1.261   1_455  A
O126        V746   1.884       .  S
O127        C132   1.248       .  A
O127        V130   1.857       .  S
O128        C131   1.254   1_455  A
O128        V746   1.865       .  S
V129        O737   1.857   1_545  S
V129        O739   1.886       .  S
V129       V1362   2.109       .  T
V130        O742   1.884       .  S
V130        O744   1.865   1_545  S
V130       V1361   2.109   1_455  T
C131        C237   1.403       .  S
C131       O1353   1.248       .  A
C132        C249   1.404       .  S
C132       O1354   1.254   1_455  A
C133        C209   1.442       .  S
C133       O1355   1.262       .  A
C134       O1356   1.261   1_445  A
C135        N136   1.346       .  A
C135        N140   1.397       .  A
C135        C257   1.526       .  S
N136        C137   1.350       .  A
C137        N138   1.352       .  A
C137        C307   1.446       .  S
N138        C139   1.350       .  A
C139        N140   1.396       .  A
C139        C155   1.522       .  S
C141        N146   1.332       .  A
C141        N758   1.409       .  A
C141        C200   1.513       .  S
N142        C143   1.406       .  A
N142        C757   1.409   1_545  A
C143        N144   1.329       .  A
C143        C151   1.537       .  S
N144        C145   1.335       .  A
C145        N762   1.326   1_545  A
N146        C761   1.326       .  A
C147        H148   1.111       .  S
C147        C153   1.570       .  S
C147        C152   1.568       .  S
C147        C151   1.548       .  S
C149        H150   1.111       .  S
C149        C155   1.563       .  S
C149        C154   1.547       .  S
C149        C156   1.538       .  S
C151        C154   1.416       .  D
C152        C155   1.415       .  D
C153        C156   1.404       .  D
C154        C159   1.532       .  S
C157        N158   1.408       .  A
C157        N162   1.332       .  A
C157        C169   1.512       .  S
N158        C159   1.405       .  A
C159        N160   1.326       .  A
N160        C161   1.333       .  A
C161        N162   1.325       .  A
C161        C291   1.400       .  S
C163        H164   1.110       .  S
C163        C169   1.572       .  S
C163        C168   1.572       .  S
C163        C167   1.572       .  S
C165        H166   1.113       .  S
C165        C171   1.537       .  S
C165        C170   1.536       .  S
C165        C172   1.536       .  S
C167        C170   1.407       .  D
C168        C175   1.512       .  S
C168        C171   1.407       .  D
C169        C172   1.407       .  D
C172        C243   1.527       .  S
C173        N174   1.405       .  A
C173        N178   1.326       .  A
C173        C188   1.532       .  S
N174        C175   1.408       .  A
C175        N176   1.332       .  A
N176        C177   1.325       .  A
C177        N178   1.332       .  A
C177        C280   1.400       .  S
C179        H180   1.111       .  S
C179        C185   1.548       .  S
C179        C184   1.569       .  S
C179        C183   1.568       .  S
C181        H182   1.111       .  S
C181        C187   1.539       .  S
C181        C186   1.563       .  S
C181        C188   1.547       .  S
C183        C239   1.520       .  S
C183        C186   1.415       .  D
C184        C233   1.513       .  S
C184        C187   1.404       .  D
C185        C265   1.537       .  S
C185        C188   1.416       .  D
C186        C189   1.522       .  S
C189        N190   1.350       .  A
C189        N194   1.395       .  A
N190        C191   1.352       .  A
C191        N192   1.350       .  A
C191        C294   1.446       .  S
N192        C193   1.346       .  A
C193        N194   1.397       .  A
C193        C203   1.526       .  S
C195        H196   1.111       .  S
C195        C201   1.568       .  S
C195        C200   1.569       .  S
C195        C199   1.548       .  S
C197        H198   1.111       .  S
C197        C203   1.538       .  S
C197        C202   1.547       .  S
C197        C204   1.564       .  S
C199        C235   1.537       .  S
C199        C202   1.416       .  D
C200        C203   1.404       .  D
C201        C204   1.415       .  D
C202        C231   1.532       .  S
C205        N210   1.349       .  A
C205       N1438   1.397       .  A
N206        C207   1.398       .  A
N206       C1437   1.397   1_455  A
C207        N208   1.345       .  A
C207        C218   1.527       .  S
N208        C209   1.348   1_455  A
C209       N1442   1.351       .  A
N210       C1441   1.351       .  A
C211        H212   1.110       .  S
C211        C217   1.572       .  S
C211        C216   1.572       .  S
C211        C215   1.572       .  S
C213        H214   1.113       .  S
C213        C219   1.536       .  S
C213        C218   1.536       .  S
C213        C220   1.536       .  S
C215        C227   1.512       .  S
C215        C218   1.407       .  D
C216        C219   1.407       .  D
C217        C221   1.512       .  S
C217        C220   1.407       .  D
C221        N222   1.408       .  A
C221        N226   1.332       .  A
N222        C223   1.405       .  A
C223        N224   1.326       .  A
C223        C255   1.532       .  S
N224        C225   1.332       .  A
C225        N226   1.325       .  A
C225        C279   1.400   1_554  S
C227        N228   1.332       .  A
C227        N232   1.408       .  A
N228        C229   1.325       .  A
C229        N230   1.332       .  A
C229        C306   1.400   1_455  S
N230        C231   1.326       .  A
C231        N232   1.405       .  A
C233        N238   1.332       .  A
C233       N1466   1.409       .  A
N234        C235   1.406       .  A
N234       C1465   1.409   1_455  A
C235        N236   1.329       .  A
N236        C237   1.335   1_455  A
C237       N1470   1.326       .  A
N238       C1469   1.326       .  A
C239        N240   1.349       .  A
C239        N860   1.397       .  A
N240        C857   1.350       .  A
C241        N242   1.348       .  A
C241        N856   1.350   1_545  A
N242        C243   1.344       .  A
C243        N244   1.398       .  A
N244        C855   1.397   1_545  A
C245        N246   1.409       .  A
C245        N250   1.332       .  A
C245        C260   1.514       .  S
N246       C1479   1.406   1_455  A
C247        N248   1.329       .  A
C247       N1478   1.406       .  A
N248       C1481   1.335       .  A
C249        N250   1.326       .  A
C249       N1480   1.335   1_455  A
C251        H252   1.111       .  S
C251        C257   1.539       .  S
C251        C256   1.563       .  S
C251        C255   1.547       .  S
C253        H254   1.111       .  S
C253        C259   1.568       .  S
C253        C258   1.548       .  S
C253        C260   1.570       .  S
C255        C258   1.416       .  D
C256        C259   1.415       .  D
C257        C260   1.404       .  D
C261        N262   1.332       .  A
C261        N574   1.409       .  A
N262        C571   1.326       .  A
C263        N264   1.335       .  A
C263        N570   1.326       .  A
N264        C265   1.329       .  A
C265        N266   1.406       .  A
N266        C569   1.409       .  A
O267        C277   1.261       .  A
O267        V275   1.885       .  S
O268        C278   1.263       .  A
O268        V583   1.888   1_554  S
O269        C279   1.254       .  A
O269        V583   1.866       .  S
O270        C280   1.248       .  A
O270        V275   1.858       .  S
O271        C280   1.254       .  A
O271        V276   1.866       .  S
O272        C279   1.248       .  A
O272        V584   1.858   1_556  S
O273        C278   1.261       .  A
O273        V584   1.885       .  S
O274        C277   1.263       .  A
O274        V276   1.888       .  S
V275        O576   1.888       .  S
V275        O577   1.866       .  S
V275        V276   2.109       .  T
V276        O580   1.858       .  S
V276        O581   1.885       .  S
O281        C291   1.248   1_565  A
O281        V289   1.858   1_565  S
O282        C292   1.254       .  A
O282        V905   1.866       .  S
O283        C293   1.261       .  A
O283        V289   1.885       .  S
O284        C294   1.263       .  A
O284        V905   1.888       .  S
O285        C294   1.261       .  A
O285        V906   1.885       .  S
O286        C293   1.263       .  A
O286        V290   1.888       .  S
O287        C292   1.248       .  A
O287        V906   1.858       .  S
O288        C291   1.254   1_565  A
O288        V290   1.866   1_565  S
V289        O898   1.866       .  S
V289        O900   1.888   1_545  S
V289        V290   2.109       .  T
V290        O901   1.885   1_545  S
V290        O903   1.858       .  S
O295        C305   1.254       .  A
O295       V1535   1.866       .  S
O296        C306   1.248       .  A
O296        V303   1.858   1_655  S
O297        C307   1.261       .  A
O297        V303   1.885       .  S
O298        C308   1.263       .  A
O298       V1535   1.888       .  S
O299        C308   1.261       .  A
O299       V1536   1.885       .  S
O300        C307   1.263       .  A
O300        V304   1.888       .  S
O301        C306   1.254       .  A
O301        V304   1.866   1_655  S
O302        C305   1.248       .  A
O302       V1536   1.858       .  S
V303       O1527   1.866       .  S
V303       O1530   1.888   1_455  S
V303        V304   2.109       .  T
V304       O1531   1.885   1_455  S
V304       O1534   1.858       .  S
C309        N310   1.405       .  A
C309        N314   1.326       .  A
C309        C416   1.532       .  S
N310        C311   1.408       .  A
C311        N312   1.332       .  A
C311        C475   1.512       .  S
N312        C313   1.325       .  A
C313        N314   1.332       .  A
C313        C613   1.400       .  S
C315        N316   1.408       .  A
C315        N320   1.332       .  A
C315        C524   1.512       .  S
N316        C317   1.405       .  A
C317        N318   1.326       .  A
C317        C395   1.532       .  S
N318        C319   1.333       .  A
C319        N320   1.325       .  A
C319        C600   1.400       .  S
C321        N322   1.350       .  A
C321        N326   1.396       .  A
C321        C512   1.522       .  S
N322        C323   1.352       .  A
C323        N324   1.350       .  A
C323        C585   1.446       .  S
N324        C325   1.346       .  A
C325        N326   1.397       .  A
C325        C464   1.526       .  S
C327        N328   1.332       .  A
C327        N332   1.409       .  A
C327        C461   1.514       .  S
N328        C329   1.326       .  A
C329        C362   1.403       .  S
N330        C331   1.329       .  A
C331        C566   1.537       .  S
C333        N334   1.349       .  A
C333        N338   1.397       .  A
C333        C567   1.520       .  S
N334        C335   1.351       .  A
C335        N952   1.348   1_545  A
C335        C383   1.442       .  S
N336        C951   1.348       .  A
N336        C337   1.344       .  A
C337        N954   1.398       .  A
C337        C527   1.527       .  S
N338        C953   1.398   1_545  A
C339        N340   1.350       .  A
C339        N344   1.396       .  A
C339        C396   1.522       .  S
N340        C341   1.352       .  A
C341        N342   1.350       .  A
C341        C616   1.446       .  S
N342        C343   1.346       .  A
C343        N344   1.397       .  A
C343        C495   1.526       .  S
C345        N346   1.349       .  A
C345        N350   1.397       .  A
C345        C509   1.520       .  S
N346        C347   1.350       .  A
C347        C364   1.442       .  S
N348        C349   1.345       .  A
C349        C528   1.527       .  S
O351        C361   1.254   1_556  A
O351       V1591   1.865       .  S
O352        C362   1.248       .  A
O352        V359   1.857       .  S
O353       V1591   1.884       .  S
O354        C364   1.262   1_655  A
O354        V359   1.886   1_655  S
O355        V360   1.884   1_655  S
O356        C363   1.262       .  A
O356       V1592   1.886       .  S
O357        V360   1.865       .  S
O358       V1592   1.857       .  S
V359       O1583   1.865   1_455  S
V359       O1585   1.884       .  S
V360       O1588   1.886       .  S
V360       O1590   1.857   1_455  S
C361        C571   1.404       .  S
C363        C387   1.442       .  S
C365        N982   1.406       .  A
C365        N370   1.329       .  A
C365        C398   1.536       .  S
N366        C981   1.406   1_545  A
N366        C367   1.409       .  A
C367        N368   1.332       .  A
C367        C412   1.513       .  S
N368        C369   1.326       .  A
C369        N986   1.335   1_545  A
C369        C381   1.403       .  S
N370        C985   1.335       .  A
O371        C381   1.248       .  A
O372        C382   1.254       .  A
O372        V379   1.865       .  S
O373        C383   1.262       .  A
O374        C384   1.261       .  A
O374        V379   1.884   1_554  S
O375       C1000   1.262       .  A
O375        V380   1.886       .  S
O376        C999   1.261       .  A
O377        C998   1.248       .  A
O377        V380   1.857   1_556  S
O378        C997   1.254       .  A
V379        V996   2.109   1_546  T
V380        V995   2.109   1_554  T
C381        O994   1.254   1_545  A
C382        C453   1.404       .  S
C382        O993   1.248   1_545  A
C383        O992   1.261   1_545  A
C384        C549   1.442   1_554  S
C384        O991   1.262   1_545  A
C385        N386   1.349       .  A
C385        N390   1.397       .  A
C385        C411   1.520       .  S
N386        C387   1.350       .  A
N388        C389   1.345       .  A
C389        C479   1.527       .  S
C391        H392   1.111       .  S
C391        C397   1.538       .  S
C391        C396   1.563       .  S
C391        C395   1.547       .  S
C393        H394   1.110       .  S
C393        C399   1.568       .  S
C393        C398   1.548       .  S
C393        C400   1.570       .  S
C395        C398   1.416       .  D
C396        C399   1.415       .  D
C397        C401   1.526       .  S
C397        C400   1.404       .  D
C399        C513   1.520       .  S
C400        C569   1.514       .  S
C401        N402   1.346       .  A
C401        N406   1.397       .  A
N402        C403   1.350       .  A
C403        N404   1.352       .  A
C403        C586   1.446       .  S
N404        C405   1.350       .  A
C405        N406   1.396       .  A
C405        C414   1.522       .  S
C407        H408   1.110       .  S
C407        C413   1.548       .  S
C407        C412   1.569       .  S
C407        C411   1.568       .  S
C409        H410   1.111       .  S
C409        C415   1.539       .  S
C409        C414   1.564       .  S
C409        C416   1.547       .  S
C411        C414   1.415       .  D
C412        C415   1.404       .  D
C413        C555   1.537       .  S
C413        C416   1.416       .  D
C415        C421   1.526       .  S
C417        N418   1.350       .  A
C417        N422   1.395       .  A
C417        C564   1.522       .  S
N418        C419   1.352       .  A
C419        N420   1.350       .  A
C419        C601   1.446       .  S
N420        C421   1.346       .  A
C421        N422   1.397       .  A
C423        N424   1.397       .  A
C423        N428   1.349       .  A
C423        C460   1.520       .  S
N424       C1657   1.398   1_455  A
C425       N1656   1.398       .  A
C425        N426   1.345       .  A
C425        C478   1.527       .  S
N426       C1659   1.348       .  A
C427       N1658   1.348   1_455  A
C427        N428   1.350       .  A
C427        C442   1.442       .  S
O429       C1671   1.248       .  A
O429       V1053   1.857       .  S
O430       C1672   1.254       .  A
O430        V437   1.865       .  S
O431       C1673   1.262       .  A
O431       V1053   1.886       .  S
O432       C1674   1.261   1_565  A
O432        V437   1.884   1_565  S
O433        C442   1.262   1_565  A
O433        V438   1.886   1_565  S
O434        C441   1.261   1_455  A
O434       V1054   1.884       .  S
O435        C440   1.248       .  A
O435        V438   1.857       .  S
O436        C439   1.254   1_455  A
O436       V1054   1.865       .  S
V437       O1045   1.857   1_545  S
V437       O1047   1.886       .  S
V437       V1670   2.109       .  T
V438       O1050   1.884       .  S
V438       O1052   1.865   1_545  S
V438       V1669   2.109   1_455  T
C439        C545   1.403       .  S
C439       O1661   1.248       .  A
C440        C557   1.404       .  S
C440       O1662   1.254   1_455  A
C441        C517   1.442       .  S
C441       O1663   1.262       .  A
C442       O1664   1.261   1_445  A
C443        N444   1.346       .  A
C443        N448   1.397       .  A
C443        C565   1.526       .  S
N444        C445   1.350       .  A
C445        N446   1.352       .  A
C445        C615   1.446       .  S
N446        C447   1.350       .  A
C447        N448   1.396       .  A
C447        C463   1.522       .  S
C449       N1066   1.409       .  A
C449        N454   1.332       .  A
C449        C508   1.513       .  S
N450       C1065   1.409   1_545  A
N450        C451   1.406       .  A
C451        N452   1.329       .  A
C451        C459   1.537       .  S
N452        C453   1.335       .  A
C453       N1070   1.326   1_545  A
N454       C1069   1.326       .  A
C455        H456   1.111       .  S
C455        C461   1.570       .  S
C455        C460   1.568       .  S
C455        C459   1.548       .  S
C457        H458   1.111       .  S
C457        C463   1.563       .  S
C457        C462   1.547       .  S
C457        C464   1.538       .  S
C459        C462   1.416       .  D
C460        C463   1.415       .  D
C461        C464   1.404       .  D
C462        C467   1.532       .  S
C465        N466   1.408       .  A
C465        N470   1.332       .  A
C465        C477   1.512       .  S
N466        C467   1.405       .  A
C467        N468   1.326       .  A
N468        C469   1.333       .  A
C469        N470   1.325       .  A
C469        C599   1.400       .  S
C471        H472   1.110       .  S
C471        C477   1.572       .  S
C471        C476   1.572       .  S
C471        C475   1.572       .  S
C473        H474   1.113       .  S
C473        C479   1.537       .  S
C473        C478   1.536       .  S
C473        C480   1.536       .  S
C475        C478   1.407       .  D
C476        C483   1.512       .  S
C476        C479   1.407       .  D
C477        C480   1.407       .  D
C480        C551   1.527       .  S
C481        N482   1.405       .  A
C481        N486   1.326       .  A
C481        C496   1.532       .  S
N482        C483   1.408       .  A
C483        N484   1.332       .  A
N484        C485   1.325       .  A
C485        N486   1.332       .  A
C485        C588   1.400   1_556  S
C487        H488   1.111       .  S
C487        C493   1.548       .  S
C487        C492   1.569       .  S
C487        C491   1.568       .  S
C489        H490   1.111       .  S
C489        C495   1.539       .  S
C489        C494   1.563       .  S
C489        C496   1.547       .  S
C491        C547   1.520       .  S
C491        C494   1.415       .  D
C492        C541   1.513       .  S
C492        C495   1.404       .  D
C493        C573   1.537       .  S
C493        C496   1.416       .  D
C494        C497   1.522       .  S
C497        N498   1.350       .  A
C497        N502   1.395       .  A
N498        C499   1.352       .  A
C499        N500   1.350       .  A
C499        C602   1.446       .  S
N500        C501   1.346       .  A
C501        N502   1.397       .  A
C501        C511   1.526       .  S
C503        H504   1.111       .  S
C503        C509   1.568       .  S
C503        C508   1.569       .  S
C503        C507   1.548       .  S
C505        H506   1.111       .  S
C505        C511   1.538       .  S
C505        C510   1.547       .  S
C505        C512   1.564       .  S
C507        C543   1.537       .  S
C507        C510   1.416       .  D
C508        C511   1.404       .  D
C509        C512   1.415       .  D
C510        C539   1.532       .  S
C513       N1746   1.397       .  A
C513        N518   1.349       .  A
N514       C1745   1.397   1_455  A
N514        C515   1.398       .  A
C515        N516   1.345       .  A
C515        C526   1.527       .  S
N516        C517   1.348   1_455  A
C517       N1750   1.351       .  A
N518       C1749   1.351       .  A
C519        H520   1.110       .  S
C519        C525   1.572       .  S
C519        C524   1.572       .  S
C519        C523   1.572       .  S
C521        H522   1.113       .  S
C521        C527   1.536       .  S
C521        C526   1.536       .  S
C521        C528   1.536       .  S
C523        C535   1.512       .  S
C523        C526   1.407       .  D
C524        C527   1.407       .  D
C525        C529   1.512       .  S
C525        C528   1.407       .  D
C529        N530   1.408       .  A
C529        N534   1.332       .  A
N530        C531   1.405       .  A
C531        N532   1.326       .  A
C531        C563   1.532       .  S
N532        C533   1.332       .  A
C533        N534   1.325       .  A
C533        C587   1.400       .  S
C535        N536   1.332       .  A
C535        N540   1.408       .  A
N536        C537   1.325       .  A
C537        N538   1.332       .  A
C537        C614   1.400   1_455  S
N538        C539   1.326       .  A
C539        N540   1.405       .  A
C541       N1774   1.409       .  A
C541        N546   1.332       .  A
N542       C1773   1.409   1_455  A
N542        C543   1.406       .  A
C543        N544   1.329       .  A
N544        C545   1.335   1_455  A
C545       N1778   1.326       .  A
N546       C1777   1.326       .  A
C547        N548   1.349       .  A
C547       N1168   1.397       .  A
N548       C1165   1.350       .  A
C549       N1164   1.350   1_545  A
C549        N550   1.348       .  A
N550        C551   1.344       .  A
C551        N552   1.398       .  A
N552       C1163   1.397   1_545  A
C553        N554   1.409       .  A
C553        N558   1.332       .  A
C553        C568   1.514       .  S
N554       C1787   1.406   1_455  A
C555       N1786   1.406       .  A
C555        N556   1.329       .  A
N556       C1789   1.335       .  A
C557       N1788   1.335   1_455  A
C557        N558   1.326       .  A
C559        H560   1.111       .  S
C559        C565   1.539       .  S
C559        C564   1.563       .  S
C559        C563   1.547       .  S
C561        H562   1.111       .  S
C561        C567   1.568       .  S
C561        C566   1.548       .  S
C561        C568   1.570       .  S
C563        C566   1.416       .  D
C564        C567   1.415       .  D
C565        C568   1.404       .  D
C569        N570   1.332       .  A
C571        N572   1.335   1_554  A
N572        C573   1.329       .  A
C573        N574   1.406   1_556  A
O575        C585   1.261       .  A
O575        V583   1.885       .  S
O576        C586   1.263       .  A
O577        C587   1.254       .  A
O578        C588   1.248       .  A
O578        V583   1.858   1_554  S
O579        C588   1.254       .  A
O579        V584   1.866       .  S
O580        C587   1.248       .  A
O581        C586   1.261       .  A
O582        C585   1.263       .  A
O582        V584   1.888   1_556  S
V583        V584   2.109   1_556  T
O589        C599   1.248   1_565  A
O589        V597   1.858   1_565  S
O590        C600   1.254       .  A
O590       V1213   1.866       .  S
O591        C601   1.261       .  A
O591        V597   1.885       .  S
O592        C602   1.263       .  A
O592       V1213   1.888       .  S
O593        C602   1.261       .  A
O593       V1214   1.885       .  S
O594        C601   1.263       .  A
O594        V598   1.888       .  S
O595        C600   1.248       .  A
O595       V1214   1.858       .  S
O596        C599   1.254   1_565  A
O596        V598   1.866   1_565  S
V597       O1206   1.866       .  S
V597       O1208   1.888   1_545  S
V597        V598   2.109       .  T
V598       O1209   1.885   1_545  S
V598       O1211   1.858       .  S
O603        C613   1.254       .  A
O603       V1843   1.866       .  S
O604        C614   1.248       .  A
O604        V611   1.858   1_655  S
O605        C615   1.261       .  A
O605        V611   1.885       .  S
O606        C616   1.263       .  A
O606       V1843   1.888       .  S
O607        C616   1.261       .  A
O607       V1844   1.885       .  S
O608        C615   1.263       .  A
O608        V612   1.888       .  S
O609        C614   1.254       .  A
O609        V612   1.866   1_655  S
O610        C613   1.248       .  A
O610       V1844   1.858       .  S
V611       O1835   1.866       .  S
V611       O1838   1.888   1_455  S
V611        V612   2.109       .  T
V612       O1839   1.885   1_455  S
V612       O1842   1.858       .  S
C617        N618   1.405       .  A
C617        N622   1.326       .  A
C617        C724   1.532       .  S
N618        C619   1.408       .  A
C619        N620   1.332       .  A
C619        C783   1.512       .  S
N620        C621   1.325       .  A
C621        N622   1.332       .  A
C621        C921   1.400       .  S
C623        N624   1.408       .  A
C623        N628   1.332       .  A
C623        C832   1.512       .  S
N624        C625   1.405       .  A
C625        N626   1.326       .  A
C625        C703   1.532       .  S
N626        C627   1.333       .  A
C627        N628   1.325       .  A
C627        C908   1.400   1_565  S
C629        N630   1.350       .  A
C629        N634   1.396       .  A
C629        C820   1.522       .  S
N630        C631   1.352       .  A
C631        N632   1.350       .  A
C631        C893   1.446       .  S
N632        C633   1.346       .  A
C633        N634   1.397       .  A
C633        C772   1.526       .  S
C635        N636   1.332       .  A
C635        N640   1.409       .  A
C635        C769   1.514       .  S
N636        C637   1.326       .  A
C637        N946   1.335       .  A
C637        C670   1.403       .  S
N638        C945   1.335   1_554  A
N638        C639   1.329       .  A
C639        N948   1.406   1_554  A
C639        C874   1.537       .  S
N640        C947   1.406       .  A
C641        N642   1.349       .  A
C641        N646   1.397       .  A
C641        C875   1.520       .  S
N642        C643   1.351       .  A
C643        C691   1.442   1_554  S
N644        C645   1.344       .  A
C645        C835   1.527       .  S
C647        N648   1.350       .  A
C647        N652   1.396       .  A
C647        C704   1.522       .  S
N648        C649   1.352       .  A
C649        N650   1.350       .  A
C649        C924   1.446       .  S
N650        C651   1.346       .  A
C651        N652   1.397       .  A
C651        C803   1.526       .  S
C653        N654   1.349       .  A
C653        N658   1.397       .  A
C653        C817   1.520       .  S
N654        C655   1.350       .  A
C655        N964   1.348       .  A
C655        C672   1.442       .  S
N656        C963   1.348   1_554  A
N656        C657   1.345       .  A
C657        N966   1.398   1_554  A
C657        C836   1.527       .  S
N658        C965   1.398       .  A
O659        C669   1.254       .  A
O659       V1899   1.865       .  S
O660        C670   1.248       .  A
O660        V667   1.857       .  S
O661        C979   1.261       .  A
O661       V1899   1.884       .  S
O662        C672   1.262   1_655  A
O662        V667   1.886   1_655  S
O663        C980   1.261   1_654  A
O663        V668   1.884   1_655  S
O664        C671   1.262       .  A
O664       V1900   1.886       .  S
O665        C978   1.254   1_554  A
O665        V668   1.865       .  S
O666        C977   1.248       .  A
O666       V1900   1.857       .  S
V667       O1891   1.865   1_455  S
V667       O1893   1.884       .  S
V667        V976   2.109       .  T
V668       O1896   1.886       .  S
V668       O1898   1.857   1_455  S
V668        V975   2.109   1_554  T
C669        C879   1.404       .  S
C669        O974   1.248       .  A
C670        O973   1.254       .  A
C671        C695   1.442       .  S
C671        O969   1.261   1_554  A
C672        O971   1.261   1_455  A
C673        N678   1.329       .  A
C673        C706   1.536       .  S
N674        C675   1.409       .  A
C675        N676   1.332       .  A
C675        C720   1.513       .  S
N676        C677   1.326       .  A
C677        C689   1.403       .  S
O679        C689   1.248       .  A
O679        V995   1.856   1_554  S
O680        C690   1.254       .  A
O680        V687   1.865       .  S
O681        C691   1.262       .  A
O681        V995   1.886       .  S
O682        C692   1.261       .  A
O682        V687   1.884       .  S
O683        V688   1.886       .  S
O684        V996   1.884   1_556  S
O685        V688   1.857       .  S
O686        V996   1.865       .  S
V687        O987   1.856       .  S
V687        O989   1.886       .  S
V688        O992   1.884       .  S
V688        O994   1.865       .  S
C690        C761   1.404       .  S
C692        C857   1.442       .  S
C693        N694   1.349       .  A
C693        N698   1.397       .  A
C693        C719   1.520       .  S
N694        C695   1.350       .  A
C695       N1004   1.348   1_554  A
N696       C1003   1.348       .  A
N696        C697   1.345       .  A
C697       N1006   1.398       .  A
C697        C787   1.527       .  S
N698       C1005   1.398   1_554  A
C699        H700   1.111       .  S
C699        C705   1.538       .  S
C699        C704   1.563       .  S
C699        C703   1.547       .  S
C701        H702   1.110       .  S
C701        C707   1.568       .  S
C701        C706   1.548       .  S
C701        C708   1.570       .  S
C703        C706   1.416       .  D
C704        C707   1.415       .  D
C705        C709   1.526       .  S
C705        C708   1.404       .  D
C707        C821   1.520       .  S
C708        C877   1.514       .  S
C709        N710   1.346       .  A
C709        N714   1.397       .  A
N710        C711   1.350       .  A
C711        N712   1.352       .  A
C711        C894   1.446       .  S
N712        C713   1.350       .  A
C713        N714   1.396       .  A
C713        C722   1.522       .  S
C715        H716   1.110       .  S
C715        C721   1.548       .  S
C715        C720   1.569       .  S
C715        C719   1.568       .  S
C717        H718   1.111       .  S
C717        C723   1.539       .  S
C717        C722   1.564       .  S
C717        C724   1.547       .  S
C719        C722   1.415       .  D
C720        C723   1.404       .  D
C721        C863   1.537       .  S
C721        C724   1.416       .  D
C723        C729   1.526       .  S
C725        N726   1.350       .  A
C725        N730   1.395       .  A
C725        C872   1.522       .  S
N726        C727   1.352       .  A
C727        N728   1.350       .  A
C727        C909   1.446       .  S
N728        C729   1.346       .  A
C729        N730   1.397       .  A
C731        N732   1.397       .  A
C731        N736   1.349       .  A
C731        C768   1.520       .  S
N732       C1965   1.398   1_455  A
C733       N1964   1.398       .  A
C733        N734   1.345       .  A
C733        C786   1.527       .  S
N734       C1967   1.348       .  A
C735       N1966   1.348   1_455  A
C735        N736   1.350       .  A
C735        C750   1.442       .  S
O737       C1979   1.248       .  A
O738       C1980   1.254       .  A
O738        V745   1.865       .  S
O739       C1981   1.262       .  A
O740       C1982   1.261       .  A
O740        V745   1.884       .  S
O741        C750   1.262       .  A
O741        V746   1.886       .  S
O742        C749   1.261   1_455  A
O743        C748   1.248       .  A
O743        V746   1.857       .  S
O744        C747   1.254   1_455  A
V745       V1978   2.109       .  T
V746       V1977   2.109   1_455  T
C747        C853   1.403       .  S
C747       O1969   1.248       .  A
C748        C865   1.404       .  S
C748       O1970   1.254   1_455  A
C749        C825   1.442   1_545  S
C749       O1971   1.262       .  A
C750       O1972   1.261   1_455  A
C751        N752   1.346       .  A
C751        N756   1.397       .  A
C751        C873   1.526       .  S
N752        C753   1.350       .  A
C753        N754   1.352       .  A
C753        C923   1.446       .  S
N754        C755   1.350       .  A
C755        N756   1.396       .  A
C755        C771   1.522       .  S
C757        N762   1.332       .  A
C757        C816   1.513       .  S
N758        C759   1.406       .  A
C759        N760   1.329       .  A
C759        C767   1.537       .  S
N760        C761   1.335       .  A
C763        H764   1.111       .  S
C763        C769   1.570       .  S
C763        C768   1.568       .  S
C763        C767   1.548       .  S
C765        H766   1.111       .  S
C765        C771   1.563       .  S
C765        C770   1.547       .  S
C765        C772   1.538       .  S
C767        C770   1.416       .  D
C768        C771   1.415       .  D
C769        C772   1.404       .  D
C770        C775   1.532       .  S
C773        N774   1.408       .  A
C773        N778   1.332       .  A
C773        C785   1.512       .  S
N774        C775   1.405       .  A
C775        N776   1.326       .  A
N776        C777   1.333       .  A
C777        N778   1.325       .  A
C777        C907   1.400       .  S
C779        H780   1.110       .  S
C779        C785   1.572       .  S
C779        C784   1.572       .  S
C779        C783   1.572       .  S
C781        H782   1.113       .  S
C781        C787   1.537       .  S
C781        C786   1.536       .  S
C781        C788   1.536       .  S
C783        C786   1.407       .  D
C784        C791   1.512       .  S
C784        C787   1.407       .  D
C785        C788   1.407       .  D
C788        C859   1.527       .  S
C789        N790   1.405       .  A
C789        N794   1.326       .  A
C789        C804   1.532       .  S
N790        C791   1.408       .  A
C791        N792   1.332       .  A
N792        C793   1.325       .  A
C793        N794   1.332       .  A
C793        C896   1.400       .  S
C795        H796   1.111       .  S
C795        C801   1.548       .  S
C795        C800   1.569       .  S
C795        C799   1.568       .  S
C797        H798   1.111       .  S
C797        C803   1.539       .  S
C797        C802   1.563       .  S
C797        C804   1.547       .  S
C799        C855   1.520       .  S
C799        C802   1.415       .  D
C800        C849   1.513       .  S
C800        C803   1.404       .  D
C801        C881   1.537       .  S
C801        C804   1.416       .  D
C802        C805   1.522       .  S
C805        N806   1.350       .  A
C805        N810   1.395       .  A
N806        C807   1.352       .  A
C807        N808   1.350       .  A
C807        C910   1.446       .  S
N808        C809   1.346       .  A
C809        N810   1.397       .  A
C809        C819   1.526       .  S
C811        H812   1.111       .  S
C811        C817   1.568       .  S
C811        C816   1.569       .  S
C811        C815   1.548       .  S
C813        H814   1.111       .  S
C813        C819   1.538       .  S
C813        C818   1.547       .  S
C813        C820   1.564       .  S
C815        C851   1.537       .  S
C815        C818   1.416       .  D
C816        C819   1.404       .  D
C817        C820   1.415       .  D
C818        C847   1.532       .  S
C821       N2054   1.397       .  A
C821        N826   1.349       .  A
N822       C2053   1.397   1_455  A
N822        C823   1.398       .  A
C823        N824   1.345       .  A
C823        C834   1.527       .  S
N824        C825   1.348   1_455  A
C825       N2058   1.351       .  A
N826       C2057   1.351       .  A
C827        H828   1.110       .  S
C827        C833   1.572       .  S
C827        C832   1.572       .  S
C827        C831   1.572       .  S
C829        H830   1.113       .  S
C829        C835   1.536       .  S
C829        C834   1.536       .  S
C829        C836   1.536       .  S
C831        C843   1.512       .  S
C831        C834   1.407       .  D
C832        C835   1.407       .  D
C833        C837   1.512       .  S
C833        C836   1.407       .  D
C837        N838   1.408       .  A
C837        N842   1.332       .  A
N838        C839   1.405       .  A
C839        N840   1.326       .  A
C839        C871   1.532       .  S
N840        C841   1.332       .  A
C841        N842   1.325       .  A
C841        C895   1.400   1_554  S
C843        N844   1.332       .  A
C843        N848   1.408       .  A
N844        C845   1.325       .  A
C845        N846   1.332       .  A
C845        C922   1.400   1_455  S
N846        C847   1.326       .  A
C847        N848   1.405       .  A
C849       N2082   1.409       .  A
C849        N854   1.332       .  A
N850       C2081   1.409   1_455  A
N850        C851   1.406       .  A
C851        N852   1.329       .  A
N852        C853   1.335   1_455  A
C853       N2086   1.326       .  A
N854       C2085   1.326       .  A
C855        N856   1.349       .  A
C857        N858   1.348       .  A
N858        C859   1.344       .  A
C859        N860   1.398       .  A
C861        N862   1.409       .  A
C861        N866   1.332       .  A
C861        C876   1.514       .  S
N862       C2095   1.406   1_455  A
C863       N2094   1.406       .  A
C863        N864   1.329       .  A
N864       C2097   1.335       .  A
C865       N2096   1.335   1_455  A
C865        N866   1.326       .  A
C867        H868   1.111       .  S
C867        C873   1.539       .  S
C867        C872   1.563       .  S
C867        C871   1.547       .  S
C869        H870   1.111       .  S
C869        C875   1.568       .  S
C869        C874   1.548       .  S
C869        C876   1.570       .  S
C871        C874   1.416       .  D
C872        C875   1.415       .  D
C873        C876   1.404       .  D
C877        N878   1.332       .  A
C877       N1190   1.409       .  A
N878       C1187   1.326       .  A
C879       N1186   1.326       .  A
C879        N880   1.335       .  A
N880        C881   1.329       .  A
C881        N882   1.406       .  A
N882       C1185   1.409       .  A
O883        C893   1.261       .  A
O883        V891   1.885       .  S
O884        C894   1.263       .  A
O884       V1199   1.888   1_554  S
O885        C895   1.254       .  A
O885       V1199   1.866       .  S
O886        C896   1.248       .  A
O886        V891   1.858       .  S
O887        C896   1.254       .  A
O887        V892   1.866       .  S
O888        C895   1.248       .  A
O888       V1200   1.858   1_556  S
O889        C894   1.261       .  A
O889       V1200   1.885       .  S
O890        C893   1.263       .  A
O890        V892   1.888       .  S
V891       O1192   1.888       .  S
V891       O1193   1.866       .  S
V891        V892   2.109       .  T
V892       O1196   1.858       .  S
V892       O1197   1.885       .  S
O897        C907   1.248       .  A
O897        V905   1.858       .  S
O898        C908   1.254       .  A
O899        C909   1.261       .  A
O899        V905   1.885       .  S
O900        C910   1.263       .  A
O901        C910   1.261       .  A
O902        C909   1.263       .  A
O902        V906   1.888       .  S
O903        C908   1.248       .  A
O904        C907   1.254       .  A
O904        V906   1.866       .  S
V905        V906   2.109       .  T
O911        C921   1.254       .  A
O911       V2151   1.866       .  S
O912        C922   1.248       .  A
O912        V919   1.858   1_655  S
O913        C923   1.261       .  A
O913        V919   1.885       .  S
O914        C924   1.263       .  A
O914       V2151   1.888       .  S
O915        C924   1.261       .  A
O915       V2152   1.885       .  S
O916        C923   1.263       .  A
O916        V920   1.888       .  S
O917        C922   1.254       .  A
O917        V920   1.866   1_655  S
O918        C921   1.248       .  A
O918       V2152   1.858       .  S
V919       O2143   1.866       .  S
V919       O2146   1.888   1_455  S
V919        V920   2.109       .  T
V920       O2147   1.885   1_455  S
V920       O2150   1.858       .  S
C925        N926   1.405       .  A
C925        N930   1.326       .  A
C925       C1032   1.532       .  S
N926        C927   1.408       .  A
C927        N928   1.332       .  A
C927       C1091   1.512       .  S
N928        C929   1.325       .  A
C929        N930   1.332       .  A
C929       C1229   1.400       .  S
C931        N932   1.408       .  A
C931        N936   1.332       .  A
C931       C1140   1.512       .  S
N932        C933   1.405       .  A
C933        N934   1.326       .  A
C933       C1011   1.532       .  S
N934        C935   1.333       .  A
C935        N936   1.325       .  A
C935       C1216   1.400   1_565  S
C937        N938   1.350       .  A
C937        N942   1.396       .  A
C937       C1128   1.522       .  S
N938        C939   1.352       .  A
C939        N940   1.350       .  A
C939       C1201   1.446       .  S
N940        C941   1.346       .  A
C941        N942   1.397       .  A
C941       C1080   1.526       .  S
C943        N944   1.332       .  A
C943        N948   1.409       .  A
C943       C1077   1.514       .  S
N944        C945   1.326       .  A
C945        C978   1.403       .  S
N946        C947   1.329       .  A
C947       C1182   1.537       .  S
C949        N950   1.349       .  A
C949        N954   1.397       .  A
C949       C1183   1.520       .  S
N950        C951   1.351       .  A
C951        C999   1.442       .  S
N952        C953   1.344       .  A
C953       C1143   1.527       .  S
C955        N956   1.350       .  A
C955        N960   1.396       .  A
C955       C1012   1.522       .  S
N956        C957   1.352       .  A
C957        N958   1.350       .  A
C957       C1232   1.446       .  S
N958        C959   1.346       .  A
C959        N960   1.397       .  A
C959       C1111   1.526       .  S
C961        N962   1.349       .  A
C961        N966   1.397       .  A
C961       C1125   1.520       .  S
N962        C963   1.350       .  A
C963        C980   1.442       .  S
N964        C965   1.345       .  A
C965       C1144   1.527       .  S
O967        C977   1.254   1_556  A
O967       V2207   1.865       .  S
O968        C978   1.248       .  A
O968        V975   1.857       .  S
O969       V2207   1.884       .  S
O970        C980   1.262   1_655  A
O970        V975   1.886   1_655  S
O971        V976   1.884   1_655  S
O972        C979   1.262       .  A
O972       V2208   1.886       .  S
O973        V976   1.865       .  S
O974       V2208   1.857       .  S
V975       O2199   1.865   1_455  S
V975       O2201   1.884       .  S
V976       O2204   1.886       .  S
V976       O2206   1.857   1_455  S
C977       C1187   1.404       .  S
C979       C1003   1.442       .  S
C981        N986   1.329       .  A
C981       C1014   1.536       .  S
N982        C983   1.409       .  A
C983        N984   1.332       .  A
C983       C1028   1.513       .  S
N984        C985   1.326       .  A
C985        C997   1.403       .  S
O987        C997   1.248       .  A
O988        C998   1.254       .  A
O988        V995   1.865       .  S
O989        C999   1.262       .  A
O990       C1000   1.261       .  A
O990        V995   1.884   1_554  S
O991        V996   1.886       .  S
O993        V996   1.857   1_556  S
C998       C1069   1.404       .  S
C1000      C1165   1.442   1_554  S
C1001      N1002   1.349       .  A
C1001      N1006   1.397       .  A
C1001      C1027   1.520       .  S
N1002      C1003   1.350       .  A
N1004      C1005   1.345       .  A
C1005      C1095   1.527       .  S
C1007      H1008   1.111       .  S
C1007      C1013   1.538       .  S
C1007      C1012   1.563       .  S
C1007      C1011   1.547       .  S
C1009      H1010   1.110       .  S
C1009      C1015   1.568       .  S
C1009      C1014   1.548       .  S
C1009      C1016   1.570       .  S
C1011      C1014   1.416       .  D
C1012      C1015   1.415       .  D
C1013      C1017   1.526       .  S
C1013      C1016   1.404       .  D
C1015      C1129   1.520       .  S
C1016      C1185   1.514       .  S
C1017      N1018   1.346       .  A
C1017      N1022   1.397       .  A
N1018      C1019   1.350       .  A
C1019      N1020   1.352       .  A
C1019      C1202   1.446       .  S
N1020      C1021   1.350       .  A
C1021      N1022   1.396       .  A
C1021      C1030   1.522       .  S
C1023      H1024   1.110       .  S
C1023      C1029   1.548       .  S
C1023      C1028   1.569       .  S
C1023      C1027   1.568       .  S
C1025      H1026   1.111       .  S
C1025      C1031   1.539       .  S
C1025      C1030   1.564       .  S
C1025      C1032   1.547       .  S
C1027      C1030   1.415       .  D
C1028      C1031   1.404       .  D
C1029      C1171   1.537       .  S
C1029      C1032   1.416       .  D
C1031      C1037   1.526       .  S
C1033      N1034   1.350       .  A
C1033      N1038   1.395       .  A
C1033      C1180   1.522       .  S
N1034      C1035   1.352       .  A
C1035      N1036   1.350       .  A
C1035      C1217   1.446       .  S
N1036      C1037   1.346       .  A
C1037      N1038   1.397       .  A
C1039      N1040   1.397       .  A
C1039      N1044   1.349       .  A
C1039      C1076   1.520       .  S
N1040      C2273   1.398   1_455  A
C1041      N2272   1.398       .  A
C1041      N1042   1.345       .  A
C1041      C1094   1.527       .  S
N1042      C2275   1.348       .  A
C1043      N2274   1.348   1_455  A
C1043      N1044   1.350       .  A
C1043      C1058   1.442       .  S
O1045      C2287   1.248       .  A
O1046      C2288   1.254       .  A
O1046      V1053   1.865       .  S
O1047      C2289   1.262       .  A
O1048      C2290   1.261       .  A
O1048      V1053   1.884       .  S
O1049      C1058   1.262       .  A
O1049      V1054   1.886       .  S
O1050      C1057   1.261   1_455  A
O1051      C1056   1.248       .  A
O1051      V1054   1.857       .  S
O1052      C1055   1.254   1_455  A
V1053      V2286   2.109       .  T
V1054      V2285   2.109   1_455  T
C1055      C1161   1.403       .  S
C1055      O2277   1.248       .  A
C1056      C1173   1.404       .  S
C1056      O2278   1.254   1_455  A
C1057      C1133   1.442   1_545  S
C1057      O2279   1.262       .  A
C1058      O2280   1.261   1_455  A
C1059      N1060   1.346       .  A
C1059      N1064   1.397       .  A
C1059      C1181   1.526       .  S
N1060      C1061   1.350       .  A
C1061      N1062   1.352       .  A
C1061      C1231   1.446       .  S
N1062      C1063   1.350       .  A
C1063      N1064   1.396       .  A
C1063      C1079   1.522       .  S
C1065      N1070   1.332       .  A
C1065      C1124   1.513       .  S
N1066      C1067   1.406       .  A
C1067      N1068   1.329       .  A
C1067      C1075   1.537       .  S
N1068      C1069   1.335       .  A
C1071      H1072   1.110       .  S
C1071      C1077   1.570       .  S
C1071      C1076   1.568       .  S
C1071      C1075   1.548       .  S
C1073      H1074   1.111       .  S
C1073      C1079   1.563       .  S
C1073      C1078   1.547       .  S
C1073      C1080   1.538       .  S
C1075      C1078   1.416       .  D
C1076      C1079   1.415       .  D
C1077      C1080   1.404       .  D
C1078      C1083   1.532       .  S
C1081      N1082   1.408       .  A
C1081      N1086   1.332       .  A
C1081      C1093   1.512       .  S
N1082      C1083   1.405       .  A
C1083      N1084   1.326       .  A
N1084      C1085   1.333       .  A
C1085      N1086   1.325       .  A
C1085      C1215   1.400       .  S
C1087      H1088   1.110       .  S
C1087      C1093   1.572       .  S
C1087      C1092   1.572       .  S
C1087      C1091   1.572       .  S
C1089      H1090   1.113       .  S
C1089      C1095   1.537       .  S
C1089      C1094   1.536       .  S
C1089      C1096   1.536       .  S
C1091      C1094   1.407       .  D
C1092      C1099   1.512       .  S
C1092      C1095   1.407       .  D
C1093      C1096   1.407       .  D
C1096      C1167   1.527       .  S
C1097      N1098   1.405       .  A
C1097      N1102   1.326       .  A
C1097      C1112   1.532       .  S
N1098      C1099   1.408       .  A
C1099      N1100   1.332       .  A
N1100      C1101   1.325       .  A
C1101      N1102   1.332       .  A
C1101      C1204   1.400   1_556  S
C1103      H1104   1.111       .  S
C1103      C1109   1.548       .  S
C1103      C1108   1.569       .  S
C1103      C1107   1.568       .  S
C1105      H1106   1.111       .  S
C1105      C1111   1.539       .  S
C1105      C1110   1.563       .  S
C1105      C1112   1.547       .  S
C1107      C1163   1.520       .  S
C1107      C1110   1.415       .  D
C1108      C1157   1.513       .  S
C1108      C1111   1.404       .  D
C1109      C1189   1.537       .  S
C1109      C1112   1.416       .  D
C1110      C1113   1.522       .  S
C1113      N1114   1.350       .  A
C1113      N1118   1.395       .  A
N1114      C1115   1.352       .  A
C1115      N1116   1.350       .  A
C1115      C1218   1.446       .  S
N1116      C1117   1.346       .  A
C1117      N1118   1.397       .  A
C1117      C1127   1.526       .  S
C1119      H1120   1.111       .  S
C1119      C1125   1.568       .  S
C1119      C1124   1.569       .  S
C1119      C1123   1.548       .  S
C1121      H1122   1.111       .  S
C1121      C1127   1.538       .  S
C1121      C1126   1.547       .  S
C1121      C1128   1.564       .  S
C1123      C1159   1.537       .  S
C1123      C1126   1.416       .  D
C1124      C1127   1.404       .  D
C1125      C1128   1.415       .  D
C1126      C1155   1.532       .  S
C1129      N2362   1.397       .  A
C1129      N1134   1.349       .  A
N1130      C2361   1.397   1_455  A
N1130      C1131   1.398       .  A
C1131      N1132   1.345       .  A
C1131      C1142   1.527       .  S
N1132      C1133   1.348   1_455  A
C1133      N2366   1.351       .  A
N1134      C2365   1.351       .  A
C1135      H1136   1.110       .  S
C1135      C1141   1.572       .  S
C1135      C1140   1.572       .  S
C1135      C1139   1.572       .  S
C1137      H1138   1.113       .  S
C1137      C1143   1.536       .  S
C1137      C1142   1.536       .  S
C1137      C1144   1.536       .  S
C1139      C1151   1.512       .  S
C1139      C1142   1.407       .  D
C1140      C1143   1.407       .  D
C1141      C1145   1.512       .  S
C1141      C1144   1.407       .  D
C1145      N1146   1.408       .  A
C1145      N1150   1.332       .  A
N1146      C1147   1.405       .  A
C1147      N1148   1.326       .  A
C1147      C1179   1.532       .  S
N1148      C1149   1.332       .  A
C1149      N1150   1.325       .  A
C1149      C1203   1.400       .  S
C1151      N1152   1.332       .  A
C1151      N1156   1.408       .  A
N1152      C1153   1.325       .  A
C1153      N1154   1.332       .  A
C1153      C1230   1.400   1_455  S
N1154      C1155   1.326       .  A
C1155      N1156   1.405       .  A
C1157      N2390   1.409       .  A
C1157      N1162   1.332       .  A
N1158      C2389   1.409   1_455  A
N1158      C1159   1.406       .  A
C1159      N1160   1.329       .  A
N1160      C1161   1.335   1_455  A
C1161      N2394   1.326       .  A
N1162      C2393   1.326       .  A
C1163      N1164   1.349       .  A
C1165      N1166   1.348       .  A
N1166      C1167   1.344       .  A
C1167      N1168   1.398       .  A
C1169      N1170   1.409       .  A
C1169      N1174   1.332       .  A
C1169      C1184   1.514       .  S
N1170      C2403   1.406   1_455  A
C1171      N2402   1.406       .  A
C1171      N1172   1.329       .  A
N1172      C2405   1.335       .  A
C1173      N2404   1.335   1_455  A
C1173      N1174   1.326       .  A
C1175      H1176   1.111       .  S
C1175      C1181   1.539       .  S
C1175      C1180   1.563       .  S
C1175      C1179   1.547       .  S
C1177      H1178   1.111       .  S
C1177      C1183   1.568       .  S
C1177      C1182   1.548       .  S
C1177      C1184   1.570       .  S
C1179      C1182   1.416       .  D
C1180      C1183   1.415       .  D
C1181      C1184   1.404       .  D
C1185      N1186   1.332       .  A
C1187      N1188   1.335   1_554  A
N1188      C1189   1.329       .  A
C1189      N1190   1.406   1_556  A
O1191      C1201   1.261       .  A
O1191      V1199   1.885       .  S
O1192      C1202   1.263       .  A
O1193      C1203   1.254       .  A
O1194      C1204   1.248       .  A
O1194      V1199   1.858   1_554  S
O1195      C1204   1.254       .  A
O1195      V1200   1.866       .  S
O1196      C1203   1.248       .  A
O1197      C1202   1.261       .  A
O1198      C1201   1.263       .  A
O1198      V1200   1.888   1_556  S
V1199      V1200   2.109   1_556  T
O1205      C1215   1.248       .  A
O1205      V1213   1.858       .  S
O1206      C1216   1.254       .  A
O1207      C1217   1.261       .  A
O1207      V1213   1.885       .  S
O1208      C1218   1.263       .  A
O1209      C1218   1.261       .  A
O1210      C1217   1.263       .  A
O1210      V1214   1.888       .  S
O1211      C1216   1.248       .  A
O1212      C1215   1.254       .  A
O1212      V1214   1.866       .  S
V1213      V1214   2.109       .  T
O1219      C1229   1.254       .  A
O1219      V2459   1.866       .  S
O1220      C1230   1.248       .  A
O1220      V1227   1.858   1_655  S
O1221      C1231   1.261       .  A
O1221      V1227   1.885       .  S
O1222      C1232   1.263       .  A
O1222      V2459   1.888       .  S
O1223      C1232   1.261       .  A
O1223      V2460   1.885       .  S
O1224      C1231   1.263       .  A
O1224      V1228   1.888       .  S
O1225      C1230   1.254       .  A
O1225      V1228   1.866   1_655  S
O1226      C1229   1.248       .  A
O1226      V2460   1.858       .  S
V1227      O2451   1.866       .  S
V1227      O2454   1.888   1_455  S
V1227      V1228   2.109       .  T
V1228      O2455   1.885   1_455  S
V1228      O2458   1.858       .  S
C1233      N1234   1.405       .  A
C1233      N1238   1.326       .  A
C1233      C1340   1.532       .  S
N1234      C1235   1.408       .  A
C1235      N1236   1.332       .  A
C1235      C1399   1.512       .  S
N1236      C1237   1.325       .  A
C1237      N1238   1.332       .  A
C1237      C1537   1.400   1_655  S
C1239      N1240   1.408       .  A
C1239      N1244   1.332       .  A
C1239      C1448   1.512       .  S
N1240      C1241   1.405       .  A
C1241      N1242   1.326       .  A
C1241      C1319   1.532       .  S
N1242      C1243   1.333       .  A
C1243      N1244   1.325       .  A
C1243      C1524   1.400       .  S
C1245      N1246   1.350       .  A
C1245      N1250   1.396       .  A
C1245      C1436   1.522       .  S
N1246      C1247   1.352       .  A
C1247      N1248   1.350       .  A
C1247      C1509   1.446       .  S
N1248      C1249   1.346       .  A
C1249      N1250   1.397       .  A
C1249      C1388   1.526       .  S
C1251      N1252   1.332       .  A
C1251      N1256   1.409       .  A
C1251      C1385   1.514       .  S
N1252      C1253   1.326       .  A
C1253      N1562   1.335       .  A
C1253      C1286   1.403       .  S
N1254      C1561   1.335   1_554  A
N1254      C1255   1.329       .  A
C1255      N1564   1.406   1_554  A
C1255      C1490   1.537       .  S
N1256      C1563   1.406       .  A
C1257      N1258   1.349       .  A
C1257      N1262   1.397       .  A
C1257      C1491   1.520       .  S
N1258      C1259   1.351       .  A
C1259      N1876   1.348   1_545  A
C1259      C1307   1.442   1_554  S
N1260      C1875   1.348       .  A
N1260      C1261   1.344       .  A
C1261      N1878   1.398       .  A
C1261      C1451   1.527       .  S
N1262      C1877   1.398   1_545  A
C1263      N1264   1.350       .  A
C1263      N1268   1.396       .  A
C1263      C1320   1.522       .  S
N1264      C1265   1.352       .  A
C1265      N1266   1.350       .  A
C1265      C1540   1.446       .  S
N1266      C1267   1.346       .  A
C1267      N1268   1.397       .  A
C1267      C1419   1.526       .  S
C1269      N1270   1.349       .  A
C1269      N1274   1.397       .  A
C1269      C1433   1.520       .  S
N1270      C1271   1.350       .  A
C1271      N1580   1.348       .  A
C1271      C1288   1.442       .  S
N1272      C1579   1.348   1_554  A
N1272      C1273   1.345       .  A
C1273      N1582   1.398   1_554  A
C1273      C1452   1.527       .  S
N1274      C1581   1.398       .  A
O1275      C1285   1.254       .  A
O1276      C1286   1.248       .  A
O1276      V1283   1.857       .  S
O1277      C1595   1.261       .  A
O1278      C1288   1.262       .  A
O1278      V1283   1.886       .  S
O1279      C1596   1.261   1_554  A
O1279      V1284   1.884       .  S
O1280      C1287   1.262       .  A
O1281      C1594   1.254   1_554  A
O1281      V1284   1.865       .  S
O1282      C1593   1.248       .  A
V1283      V1592   2.109       .  T
V1284      V1591   2.109   1_554  T
C1285      C1495   1.404       .  S
C1285      O1590   1.248       .  A
C1286      O1589   1.254       .  A
C1287      C1311   1.442   1_455  S
C1287      O1585   1.261   1_554  A
C1288      O1587   1.261       .  A
C1289      N1906   1.406       .  A
C1289      N1294   1.329       .  A
C1289      C1322   1.536       .  S
N1290      C1905   1.406   1_545  A
N1290      C1291   1.409       .  A
C1291      N1292   1.332       .  A
C1291      C1336   1.513       .  S
N1292      C1293   1.326       .  A
C1293      N1910   1.335   1_545  A
C1293      C1305   1.403       .  S
N1294      C1909   1.335       .  A
O1295      C1305   1.248       .  A
O1295      V1611   1.856   1_554  S
O1296      C1306   1.254       .  A
O1296      V1303   1.865       .  S
O1297      C1307   1.262       .  A
O1297      V1611   1.886       .  S
O1298      C1308   1.261       .  A
O1298      V1303   1.884       .  S
O1299      C1924   1.262       .  A
O1299      V1304   1.886       .  S
O1300      C1923   1.261       .  A
O1300      V1612   1.884   1_556  S
O1301      C1922   1.248       .  A
O1301      V1304   1.857       .  S
O1302      C1921   1.254       .  A
O1302      V1612   1.865       .  S
V1303      O1603   1.856       .  S
V1303      O1605   1.886       .  S
V1303      V1920   2.109   1_545  T
V1304      O1608   1.884       .  S
V1304      O1610   1.865       .  S
V1304      V1919   2.109       .  T
C1305      O1918   1.254   1_545  A
C1306      C1377   1.404       .  S
C1306      O1917   1.248   1_545  A
C1307      O1916   1.261   1_545  A
C1308      C1473   1.442       .  S
C1308      O1915   1.262   1_545  A
C1309      N1310   1.349       .  A
C1309      N1314   1.397       .  A
C1309      C1335   1.520       .  S
N1310      C1311   1.350       .  A
C1311      N1620   1.348   1_554  A
N1312      C1619   1.348       .  A
N1312      C1313   1.345       .  A
C1313      N1622   1.398       .  A
C1313      C1403   1.527       .  S
N1314      C1621   1.398   1_554  A
C1315      H1316   1.111       .  S
C1315      C1321   1.538       .  S
C1315      C1320   1.563       .  S
C1315      C1319   1.547       .  S
C1317      H1318   1.111       .  S
C1317      C1323   1.568       .  S
C1317      C1322   1.548       .  S
C1317      C1324   1.570       .  S
C1319      C1322   1.416       .  D
C1320      C1323   1.415       .  D
C1321      C1325   1.526       .  S
C1321      C1324   1.404       .  D
C1323      C1437   1.520       .  S
C1324      C1493   1.514       .  S
C1325      N1326   1.346       .  A
C1325      N1330   1.397       .  A
N1326      C1327   1.350       .  A
C1327      N1328   1.352       .  A
C1327      C1510   1.446       .  S
N1328      C1329   1.350       .  A
C1329      N1330   1.396       .  A
C1329      C1338   1.522       .  S
C1331      H1332   1.110       .  S
C1331      C1337   1.548       .  S
C1331      C1336   1.569       .  S
C1331      C1335   1.568       .  S
C1333      H1334   1.111       .  S
C1333      C1339   1.539       .  S
C1333      C1338   1.564       .  S
C1333      C1340   1.547       .  S
C1335      C1338   1.415       .  D
C1336      C1339   1.404       .  D
C1337      C1479   1.537       .  S
C1337      C1340   1.416       .  D
C1339      C1345   1.526       .  S
C1341      N1342   1.350       .  A
C1341      N1346   1.395       .  A
C1341      C1488   1.522       .  S
N1342      C1343   1.352       .  A
C1343      N1344   1.350       .  A
C1343      C1525   1.446       .  S
N1344      C1345   1.346       .  A
C1345      N1346   1.397       .  A
C1347      N1348   1.397       .  A
C1347      N1352   1.349       .  A
C1347      C1384   1.520       .  S
C1349      N1350   1.345       .  A
C1349      C1402   1.527       .  S
C1351      N1352   1.350       .  A
C1351      C1366   1.442       .  S
O1353      V1977   1.857       .  S
O1354      V1361   1.865       .  S
O1355      V1977   1.886       .  S
O1356      V1361   1.884   1_565  S
O1357      C1366   1.262   1_565  A
O1357      V1362   1.886   1_565  S
O1358      C1365   1.261       .  A
O1358      V1978   1.884       .  S
O1359      C1364   1.248       .  A
O1359      V1362   1.857       .  S
O1360      C1363   1.254       .  A
O1360      V1978   1.865       .  S
V1361      O1969   1.857   1_545  S
V1361      O1971   1.886       .  S
V1362      O1974   1.884       .  S
V1362      O1976   1.865   1_545  S
C1363      C1469   1.403       .  S
C1364      C1481   1.404       .  S
C1365      C1441   1.442       .  S
C1367      N1368   1.346       .  A
C1367      N1372   1.397       .  A
C1367      C1489   1.526       .  S
N1368      C1369   1.350       .  A
C1369      N1370   1.352       .  A
C1369      C1539   1.446       .  S
N1370      C1371   1.350       .  A
C1371      N1372   1.396       .  A
C1371      C1387   1.522       .  S
C1373      N1990   1.409       .  A
C1373      N1378   1.332       .  A
C1373      C1432   1.513       .  S
N1374      C1989   1.409   1_545  A
N1374      C1375   1.406       .  A
C1375      N1376   1.329       .  A
C1375      C1383   1.537       .  S
N1376      C1377   1.335       .  A
C1377      N1994   1.326   1_545  A
N1378      C1993   1.326       .  A
C1379      H1380   1.111       .  S
C1379      C1385   1.570       .  S
C1379      C1384   1.568       .  S
C1379      C1383   1.548       .  S
C1381      H1382   1.111       .  S
C1381      C1387   1.563       .  S
C1381      C1386   1.547       .  S
C1381      C1388   1.538       .  S
C1383      C1386   1.416       .  D
C1384      C1387   1.415       .  D
C1385      C1388   1.404       .  D
C1386      C1391   1.532       .  S
C1389      N1390   1.408       .  A
C1389      N1394   1.332       .  A
C1389      C1401   1.512       .  S
N1390      C1391   1.405       .  A
C1391      N1392   1.326       .  A
N1392      C1393   1.333       .  A
C1393      N1394   1.325       .  A
C1393      C1523   1.400       .  S
C1395      H1396   1.110       .  S
C1395      C1401   1.572       .  S
C1395      C1400   1.572       .  S
C1395      C1399   1.572       .  S
C1397      H1398   1.113       .  S
C1397      C1403   1.537       .  S
C1397      C1402   1.536       .  S
C1397      C1404   1.536       .  S
C1399      C1402   1.407       .  D
C1400      C1407   1.512       .  S
C1400      C1403   1.407       .  D
C1401      C1404   1.407       .  D
C1404      C1475   1.527       .  S
C1405      N1406   1.405       .  A
C1405      N1410   1.326       .  A
C1405      C1420   1.532       .  S
N1406      C1407   1.408       .  A
C1407      N1408   1.332       .  A
N1408      C1409   1.325       .  A
C1409      N1410   1.332       .  A
C1409      C1512   1.400       .  S
C1411      H1412   1.111       .  S
C1411      C1417   1.548       .  S
C1411      C1416   1.569       .  S
C1411      C1415   1.568       .  S
C1413      H1414   1.111       .  S
C1413      C1419   1.539       .  S
C1413      C1418   1.563       .  S
C1413      C1420   1.547       .  S
C1415      C1471   1.520       .  S
C1415      C1418   1.415       .  D
C1416      C1465   1.513       .  S
C1416      C1419   1.404       .  D
C1417      C1497   1.537       .  S
C1417      C1420   1.416       .  D
C1418      C1421   1.522       .  S
C1421      N1422   1.350       .  A
C1421      N1426   1.395       .  A
N1422      C1423   1.352       .  A
C1423      N1424   1.350       .  A
C1423      C1526   1.446       .  S
N1424      C1425   1.346       .  A
C1425      N1426   1.397       .  A
C1425      C1435   1.526       .  S
C1427      H1428   1.111       .  S
C1427      C1433   1.568       .  S
C1427      C1432   1.569       .  S
C1427      C1431   1.548       .  S
C1429      H1430   1.111       .  S
C1429      C1435   1.538       .  S
C1429      C1434   1.547       .  S
C1429      C1436   1.564       .  S
C1431      C1467   1.537       .  S
C1431      C1434   1.416       .  D
C1432      C1435   1.404       .  D
C1433      C1436   1.415       .  D
C1434      C1463   1.532       .  S
C1437      N1442   1.349       .  A
N1438      C1439   1.398       .  A
C1439      N1440   1.345       .  A
C1439      C1450   1.527       .  S
N1440      C1441   1.348       .  A
C1443      H1444   1.110       .  S
C1443      C1449   1.572       .  S
C1443      C1448   1.572       .  S
C1443      C1447   1.572       .  S
C1445      H1446   1.113       .  S
C1445      C1451   1.536       .  S
C1445      C1450   1.536       .  S
C1445      C1452   1.536       .  S
C1447      C1459   1.512       .  S
C1447      C1450   1.407       .  D
C1448      C1451   1.407       .  D
C1449      C1453   1.512       .  S
C1449      C1452   1.407       .  D
C1453      N1454   1.408       .  A
C1453      N1458   1.332       .  A
N1454      C1455   1.405       .  A
C1455      N1456   1.326       .  A
C1455      C1487   1.532       .  S
N1456      C1457   1.332       .  A
C1457      N1458   1.325       .  A
C1457      C1511   1.400   1_554  S
C1459      N1460   1.332       .  A
C1459      N1464   1.408       .  A
N1460      C1461   1.325       .  A
C1461      N1462   1.332       .  A
C1461      C1538   1.400       .  S
N1462      C1463   1.326       .  A
C1463      N1464   1.405       .  A
C1465      N1470   1.332       .  A
N1466      C1467   1.406       .  A
C1467      N1468   1.329       .  A
N1468      C1469   1.335       .  A
C1471      N1472   1.349       .  A
C1471      N2092   1.397       .  A
N1472      C2089   1.350       .  A
C1473      N2088   1.350   1_545  A
C1473      N1474   1.348       .  A
N1474      C1475   1.344       .  A
C1475      N1476   1.398       .  A
N1476      C2087   1.397   1_545  A
C1477      N1478   1.409       .  A
C1477      N1482   1.332       .  A
C1477      C1492   1.514       .  S
C1479      N1480   1.329       .  A
C1481      N1482   1.326       .  A
C1483      H1484   1.111       .  S
C1483      C1489   1.539       .  S
C1483      C1488   1.563       .  S
C1483      C1487   1.547       .  S
C1485      H1486   1.111       .  S
C1485      C1491   1.568       .  S
C1485      C1490   1.548       .  S
C1485      C1492   1.570       .  S
C1487      C1490   1.416       .  D
C1488      C1491   1.415       .  D
C1489      C1492   1.404       .  D
C1493      N1494   1.332       .  A
C1493      N1806   1.409       .  A
N1494      C1803   1.326       .  A
C1495      N1802   1.326       .  A
C1495      N1496   1.335       .  A
N1496      C1497   1.329       .  A
C1497      N1498   1.406       .  A
N1498      C1801   1.409       .  A
O1499      C1509   1.261       .  A
O1499      V1507   1.885       .  S
O1500      C1510   1.263       .  A
O1500      V1815   1.888   1_554  S
O1501      C1511   1.254       .  A
O1501      V1815   1.866       .  S
O1502      C1512   1.248       .  A
O1502      V1507   1.858       .  S
O1503      C1512   1.254       .  A
O1503      V1508   1.866       .  S
O1504      C1511   1.248       .  A
O1504      V1816   1.858   1_556  S
O1505      C1510   1.261       .  A
O1505      V1816   1.885       .  S
O1506      C1509   1.263       .  A
O1506      V1508   1.888       .  S
V1507      O1808   1.888       .  S
V1507      O1809   1.866       .  S
V1507      V1508   2.109       .  T
V1508      O1812   1.858       .  S
V1508      O1813   1.885       .  S
O1513      C1523   1.248   1_565  A
O1513      V1521   1.858   1_565  S
O1514      C1524   1.254       .  A
O1514      V2137   1.866       .  S
O1515      C1525   1.261       .  A
O1515      V1521   1.885       .  S
O1516      C1526   1.263       .  A
O1516      V2137   1.888       .  S
O1517      C1526   1.261       .  A
O1517      V2138   1.885       .  S
O1518      C1525   1.263       .  A
O1518      V1522   1.888       .  S
O1519      C1524   1.248       .  A
O1519      V2138   1.858       .  S
O1520      C1523   1.254   1_565  A
O1520      V1522   1.866   1_565  S
V1521      O2130   1.866       .  S
V1521      O2132   1.888   1_545  S
V1521      V1522   2.109       .  T
V1522      O2133   1.885   1_545  S
V1522      O2135   1.858       .  S
O1527      C1537   1.254       .  A
O1528      C1538   1.248       .  A
O1528      V1535   1.858       .  S
O1529      C1539   1.261       .  A
O1529      V1535   1.885       .  S
O1530      C1540   1.263       .  A
O1531      C1540   1.261       .  A
O1532      C1539   1.263       .  A
O1532      V1536   1.888       .  S
O1533      C1538   1.254       .  A
O1533      V1536   1.866       .  S
O1534      C1537   1.248       .  A
V1535      V1536   2.109       .  T
C1541      N1542   1.405       .  A
C1541      N1546   1.326       .  A
C1541      C1648   1.532       .  S
N1542      C1543   1.408       .  A
C1543      N1544   1.332       .  A
C1543      C1707   1.512       .  S
N1544      C1545   1.325       .  A
C1545      N1546   1.332       .  A
C1545      C1845   1.400   1_655  S
C1547      N1548   1.408       .  A
C1547      N1552   1.332       .  A
C1547      C1756   1.512       .  S
N1548      C1549   1.405       .  A
C1549      N1550   1.326       .  A
C1549      C1627   1.532       .  S
N1550      C1551   1.333       .  A
C1551      N1552   1.325       .  A
C1551      C1832   1.400       .  S
C1553      N1554   1.350       .  A
C1553      N1558   1.396       .  A
C1553      C1744   1.522       .  S
N1554      C1555   1.352       .  A
C1555      N1556   1.350       .  A
C1555      C1817   1.446       .  S
N1556      C1557   1.346       .  A
C1557      N1558   1.397       .  A
C1557      C1696   1.526       .  S
C1559      N1560   1.332       .  A
C1559      N1564   1.409       .  A
C1559      C1693   1.514       .  S
N1560      C1561   1.326       .  A
C1561      C1594   1.403       .  S
N1562      C1563   1.329       .  A
C1563      C1798   1.537       .  S
C1565      N1566   1.349       .  A
C1565      N1570   1.397       .  A
C1565      C1799   1.520       .  S
N1566      C1567   1.351       .  A
C1567      N2184   1.348   1_545  A
C1567      C1615   1.442       .  S
N1568      C2183   1.348       .  A
N1568      C1569   1.344       .  A
C1569      N2186   1.398       .  A
C1569      C1759   1.527       .  S
N1570      C2185   1.398   1_545  A
C1571      N1572   1.350       .  A
C1571      N1576   1.396       .  A
C1571      C1628   1.522       .  S
N1572      C1573   1.352       .  A
C1573      N1574   1.350       .  A
C1573      C1848   1.446       .  S
N1574      C1575   1.346       .  A
C1575      N1576   1.397       .  A
C1575      C1727   1.526       .  S
C1577      N1578   1.349       .  A
C1577      N1582   1.397       .  A
C1577      C1741   1.520       .  S
N1578      C1579   1.350       .  A
C1579      C1596   1.442       .  S
N1580      C1581   1.345       .  A
C1581      C1760   1.527       .  S
O1583      C1593   1.254   1_556  A
O1584      C1594   1.248       .  A
O1584      V1591   1.857       .  S
O1586      C1596   1.262       .  A
O1586      V1591   1.886       .  S
O1587      V1592   1.884       .  S
O1588      C1595   1.262       .  A
O1589      V1592   1.865       .  S
C1593      C1803   1.404       .  S
C1595      C1619   1.442   1_455  S
C1597      N2214   1.406       .  A
C1597      N1602   1.329       .  A
C1597      C1630   1.536       .  S
N1598      C2213   1.406   1_545  A
N1598      C1599   1.409       .  A
C1599      N1600   1.332       .  A
C1599      C1644   1.513       .  S
N1600      C1601   1.326       .  A
C1601      N2218   1.335   1_545  A
C1601      C1613   1.403       .  S
N1602      C2217   1.335       .  A
O1603      C1613   1.248       .  A
O1604      C1614   1.254       .  A
O1604      V1611   1.865       .  S
O1605      C1615   1.262       .  A
O1606      C1616   1.261       .  A
O1606      V1611   1.884   1_554  S
O1607      C2232   1.262       .  A
O1607      V1612   1.886       .  S
O1608      C2231   1.261       .  A
O1609      C2230   1.248       .  A
O1609      V1612   1.857   1_556  S
O1610      C2229   1.254       .  A
V1611      V2228   2.109   1_546  T
V1612      V2227   2.109   1_554  T
C1613      O2226   1.254   1_545  A
C1614      C1685   1.404       .  S
C1614      O2225   1.248   1_545  A
C1615      O2224   1.261   1_545  A
C1616      C1781   1.442   1_554  S
C1616      O2223   1.262   1_545  A
C1617      N1618   1.349       .  A
C1617      N1622   1.397       .  A
C1617      C1643   1.520       .  S
N1618      C1619   1.350       .  A
N1620      C1621   1.345       .  A
C1621      C1711   1.527       .  S
C1623      H1624   1.111       .  S
C1623      C1629   1.538       .  S
C1623      C1628   1.563       .  S
C1623      C1627   1.547       .  S
C1625      H1626   1.110       .  S
C1625      C1631   1.568       .  S
C1625      C1630   1.548       .  S
C1625      C1632   1.570       .  S
C1627      C1630   1.416       .  D
C1628      C1631   1.415       .  D
C1629      C1633   1.526       .  S
C1629      C1632   1.404       .  D
C1631      C1745   1.520       .  S
C1632      C1801   1.514       .  S
C1633      N1634   1.346       .  A
C1633      N1638   1.397       .  A
N1634      C1635   1.350       .  A
C1635      N1636   1.352       .  A
C1635      C1818   1.446       .  S
N1636      C1637   1.350       .  A
C1637      N1638   1.396       .  A
C1637      C1646   1.522       .  S
C1639      H1640   1.110       .  S
C1639      C1645   1.548       .  S
C1639      C1644   1.569       .  S
C1639      C1643   1.568       .  S
C1641      H1642   1.111       .  S
C1641      C1647   1.539       .  S
C1641      C1646   1.564       .  S
C1641      C1648   1.547       .  S
C1643      C1646   1.415       .  D
C1644      C1647   1.404       .  D
C1645      C1787   1.537       .  S
C1645      C1648   1.416       .  D
C1647      C1653   1.526       .  S
C1649      N1650   1.350       .  A
C1649      N1654   1.395       .  A
C1649      C1796   1.522       .  S
N1650      C1651   1.352       .  A
C1651      N1652   1.350       .  A
C1651      C1833   1.446       .  S
N1652      C1653   1.346       .  A
C1653      N1654   1.397       .  A
C1655      N1656   1.397       .  A
C1655      N1660   1.349       .  A
C1655      C1692   1.520       .  S
C1657      N1658   1.345       .  A
C1657      C1710   1.527       .  S
C1659      N1660   1.350       .  A
C1659      C1674   1.442       .  S
O1661      V2285   1.857       .  S
O1662      V1669   1.865       .  S
O1663      V2285   1.886       .  S
O1664      V1669   1.884   1_565  S
O1665      C1674   1.262   1_565  A
O1665      V1670   1.886   1_565  S
O1666      C1673   1.261       .  A
O1666      V2286   1.884       .  S
O1667      C1672   1.248       .  A
O1667      V1670   1.857       .  S
O1668      C1671   1.254       .  A
O1668      V2286   1.865       .  S
V1669      O2277   1.857   1_545  S
V1669      O2279   1.886       .  S
V1670      O2282   1.884       .  S
V1670      O2284   1.865   1_545  S
C1671      C1777   1.403       .  S
C1672      C1789   1.404       .  S
C1673      C1749   1.442       .  S
C1675      N1676   1.346       .  A
C1675      N1680   1.397       .  A
C1675      C1797   1.526       .  S
N1676      C1677   1.350       .  A
C1677      N1678   1.352       .  A
C1677      C1847   1.446       .  S
N1678      C1679   1.350       .  A
C1679      N1680   1.396       .  A
C1679      C1695   1.522       .  S
C1681      N2298   1.409       .  A
C1681      N1686   1.332       .  A
C1681      C1740   1.513       .  S
N1682      C2297   1.409   1_545  A
N1682      C1683   1.406       .  A
C1683      N1684   1.329       .  A
C1683      C1691   1.537       .  S
N1684      C1685   1.335       .  A
C1685      N2302   1.326   1_545  A
N1686      C2301   1.326       .  A
C1687      H1688   1.110       .  S
C1687      C1693   1.570       .  S
C1687      C1692   1.568       .  S
C1687      C1691   1.548       .  S
C1689      H1690   1.111       .  S
C1689      C1695   1.563       .  S
C1689      C1694   1.547       .  S
C1689      C1696   1.538       .  S
C1691      C1694   1.416       .  D
C1692      C1695   1.415       .  D
C1693      C1696   1.404       .  D
C1694      C1699   1.532       .  S
C1697      N1698   1.408       .  A
C1697      N1702   1.332       .  A
C1697      C1709   1.512       .  S
N1698      C1699   1.405       .  A
C1699      N1700   1.326       .  A
N1700      C1701   1.333       .  A
C1701      N1702   1.325       .  A
C1701      C1831   1.400       .  S
C1703      H1704   1.110       .  S
C1703      C1709   1.572       .  S
C1703      C1708   1.572       .  S
C1703      C1707   1.572       .  S
C1705      H1706   1.113       .  S
C1705      C1711   1.537       .  S
C1705      C1710   1.536       .  S
C1705      C1712   1.536       .  S
C1707      C1710   1.407       .  D
C1708      C1715   1.512       .  S
C1708      C1711   1.407       .  D
C1709      C1712   1.407       .  D
C1712      C1783   1.527       .  S
C1713      N1714   1.405       .  A
C1713      N1718   1.326       .  A
C1713      C1728   1.532       .  S
N1714      C1715   1.408       .  A
C1715      N1716   1.332       .  A
N1716      C1717   1.325       .  A
C1717      N1718   1.332       .  A
C1717      C1820   1.400   1_556  S
C1719      H1720   1.111       .  S
C1719      C1725   1.548       .  S
C1719      C1724   1.569       .  S
C1719      C1723   1.568       .  S
C1721      H1722   1.111       .  S
C1721      C1727   1.539       .  S
C1721      C1726   1.563       .  S
C1721      C1728   1.547       .  S
C1723      C1779   1.520       .  S
C1723      C1726   1.415       .  D
C1724      C1773   1.513       .  S
C1724      C1727   1.404       .  D
C1725      C1805   1.537       .  S
C1725      C1728   1.416       .  D
C1726      C1729   1.522       .  S
C1729      N1730   1.350       .  A
C1729      N1734   1.395       .  A
N1730      C1731   1.352       .  A
C1731      N1732   1.350       .  A
C1731      C1834   1.446       .  S
N1732      C1733   1.346       .  A
C1733      N1734   1.397       .  A
C1733      C1743   1.526       .  S
C1735      H1736   1.111       .  S
C1735      C1741   1.568       .  S
C1735      C1740   1.569       .  S
C1735      C1739   1.548       .  S
C1737      H1738   1.111       .  S
C1737      C1743   1.538       .  S
C1737      C1742   1.547       .  S
C1737      C1744   1.564       .  S
C1739      C1775   1.537       .  S
C1739      C1742   1.416       .  D
C1740      C1743   1.404       .  D
C1741      C1744   1.415       .  D
C1742      C1771   1.532       .  S
C1745      N1750   1.349       .  A
N1746      C1747   1.398       .  A
C1747      N1748   1.345       .  A
C1747      C1758   1.527       .  S
N1748      C1749   1.348       .  A
C1751      H1752   1.110       .  S
C1751      C1757   1.572       .  S
C1751      C1756   1.572       .  S
C1751      C1755   1.572       .  S
C1753      H1754   1.113       .  S
C1753      C1759   1.536       .  S
C1753      C1758   1.536       .  S
C1753      C1760   1.536       .  S
C1755      C1767   1.512       .  S
C1755      C1758   1.407       .  D
C1756      C1759   1.407       .  D
C1757      C1761   1.512       .  S
C1757      C1760   1.407       .  D
C1761      N1762   1.408       .  A
C1761      N1766   1.332       .  A
N1762      C1763   1.405       .  A
C1763      N1764   1.326       .  A
C1763      C1795   1.532       .  S
N1764      C1765   1.332       .  A
C1765      N1766   1.325       .  A
C1765      C1819   1.400       .  S
C1767      N1768   1.332       .  A
C1767      N1772   1.408       .  A
N1768      C1769   1.325       .  A
C1769      N1770   1.332       .  A
C1769      C1846   1.400       .  S
N1770      C1771   1.326       .  A
C1771      N1772   1.405       .  A
C1773      N1778   1.332       .  A
N1774      C1775   1.406       .  A
C1775      N1776   1.329       .  A
N1776      C1777   1.335       .  A
C1779      N1780   1.349       .  A
C1779      N2400   1.397       .  A
N1780      C2397   1.350       .  A
C1781      N2396   1.350   1_545  A
C1781      N1782   1.348       .  A
N1782      C1783   1.344       .  A
C1783      N1784   1.398       .  A
N1784      C2395   1.397   1_545  A
C1785      N1786   1.409       .  A
C1785      N1790   1.332       .  A
C1785      C1800   1.514       .  S
C1787      N1788   1.329       .  A
C1789      N1790   1.326       .  A
C1791      H1792   1.111       .  S
C1791      C1797   1.539       .  S
C1791      C1796   1.563       .  S
C1791      C1795   1.547       .  S
C1793      H1794   1.111       .  S
C1793      C1799   1.568       .  S
C1793      C1798   1.548       .  S
C1793      C1800   1.570       .  S
C1795      C1798   1.416       .  D
C1796      C1799   1.415       .  D
C1797      C1800   1.404       .  D
C1801      N1802   1.332       .  A
C1803      N1804   1.335   1_554  A
N1804      C1805   1.329       .  A
C1805      N1806   1.406   1_556  A
O1807      C1817   1.261       .  A
O1807      V1815   1.885       .  S
O1808      C1818   1.263       .  A
O1809      C1819   1.254       .  A
O1810      C1820   1.248       .  A
O1810      V1815   1.858   1_554  S
O1811      C1820   1.254       .  A
O1811      V1816   1.866       .  S
O1812      C1819   1.248       .  A
O1813      C1818   1.261       .  A
O1814      C1817   1.263       .  A
O1814      V1816   1.888   1_556  S
V1815      V1816   2.109   1_556  T
O1821      C1831   1.248   1_565  A
O1821      V1829   1.858   1_565  S
O1822      C1832   1.254       .  A
O1822      V2445   1.866       .  S
O1823      C1833   1.261       .  A
O1823      V1829   1.885       .  S
O1824      C1834   1.263       .  A
O1824      V2445   1.888       .  S
O1825      C1834   1.261       .  A
O1825      V2446   1.885       .  S
O1826      C1833   1.263       .  A
O1826      V1830   1.888       .  S
O1827      C1832   1.248       .  A
O1827      V2446   1.858       .  S
O1828      C1831   1.254   1_565  A
O1828      V1830   1.866   1_565  S
V1829      O2438   1.866       .  S
V1829      O2440   1.888   1_545  S
V1829      V1830   2.109       .  T
V1830      O2441   1.885   1_545  S
V1830      O2443   1.858       .  S
O1835      C1845   1.254       .  A
O1836      C1846   1.248       .  A
O1836      V1843   1.858       .  S
O1837      C1847   1.261       .  A
O1837      V1843   1.885       .  S
O1838      C1848   1.263       .  A
O1839      C1848   1.261       .  A
O1840      C1847   1.263       .  A
O1840      V1844   1.888       .  S
O1841      C1846   1.254       .  A
O1841      V1844   1.866       .  S
O1842      C1845   1.248       .  A
V1843      V1844   2.109       .  T
C1849      N1850   1.405       .  A
C1849      N1854   1.326       .  A
C1849      C1956   1.532       .  S
N1850      C1851   1.408       .  A
C1851      N1852   1.332       .  A
C1851      C2015   1.512       .  S
N1852      C1853   1.325       .  A
C1853      N1854   1.332       .  A
C1853      C2153   1.400   1_655  S
C1855      N1856   1.408       .  A
C1855      N1860   1.332       .  A
C1855      C2064   1.512       .  S
N1856      C1857   1.405       .  A
C1857      N1858   1.326       .  A
C1857      C1935   1.532       .  S
N1858      C1859   1.333       .  A
C1859      N1860   1.325       .  A
C1859      C2140   1.400   1_565  S
C1861      N1862   1.350       .  A
C1861      N1866   1.396       .  A
C1861      C2052   1.522       .  S
N1862      C1863   1.352       .  A
C1863      N1864   1.350       .  A
C1863      C2125   1.446       .  S
N1864      C1865   1.346       .  A
C1865      N1866   1.397       .  A
C1865      C2004   1.526       .  S
C1867      N1868   1.332       .  A
C1867      N1872   1.409       .  A
C1867      C2001   1.514       .  S
N1868      C1869   1.326       .  A
C1869      N2178   1.335       .  A
C1869      C1902   1.403       .  S
N1870      C2177   1.335   1_554  A
N1870      C1871   1.329       .  A
C1871      N2180   1.406   1_554  A
C1871      C2106   1.537       .  S
N1872      C2179   1.406       .  A
C1873      N1874   1.349       .  A
C1873      N1878   1.397       .  A
C1873      C2107   1.520       .  S
N1874      C1875   1.351       .  A
C1875      C1923   1.442   1_554  S
N1876      C1877   1.344       .  A
C1877      C2067   1.527       .  S
C1879      N1880   1.350       .  A
C1879      N1884   1.396       .  A
C1879      C1936   1.522       .  S
N1880      C1881   1.352       .  A
C1881      N1882   1.350       .  A
C1881      C2156   1.446       .  S
N1882      C1883   1.346       .  A
C1883      N1884   1.397       .  A
C1883      C2035   1.526       .  S
C1885      N1886   1.349       .  A
C1885      N1890   1.397       .  A
C1885      C2049   1.520       .  S
N1886      C1887   1.350       .  A
C1887      N2196   1.348       .  A
C1887      C1904   1.442       .  S
N1888      C2195   1.348   1_554  A
N1888      C1889   1.345       .  A
C1889      N2198   1.398   1_554  A
C1889      C2068   1.527       .  S
N1890      C2197   1.398       .  A
O1891      C1901   1.254       .  A
O1892      C1902   1.248       .  A
O1892      V1899   1.857       .  S
O1893      C2211   1.261       .  A
O1894      C1904   1.262       .  A
O1894      V1899   1.886       .  S
O1895      C2212   1.261   1_554  A
O1895      V1900   1.884       .  S
O1896      C1903   1.262       .  A
O1897      C2210   1.254   1_554  A
O1897      V1900   1.865       .  S
O1898      C2209   1.248       .  A
V1899      V2208   2.109       .  T
V1900      V2207   2.109   1_554  T
C1901      C2111   1.404       .  S
C1901      O2206   1.248       .  A
C1902      O2205   1.254       .  A
C1903      C1927   1.442   1_455  S
C1903      O2201   1.261   1_554  A
C1904      O2203   1.261       .  A
C1905      N1910   1.329       .  A
C1905      C1938   1.536       .  S
N1906      C1907   1.409       .  A
C1907      N1908   1.332       .  A
C1907      C1952   1.513       .  S
N1908      C1909   1.326       .  A
C1909      C1921   1.403       .  S
O1911      C1921   1.248       .  A
O1911      V2227   1.856   1_554  S
O1912      C1922   1.254       .  A
O1912      V1919   1.865       .  S
O1913      C1923   1.262       .  A
O1913      V2227   1.886       .  S
O1914      C1924   1.261       .  A
O1914      V1919   1.884       .  S
O1915      V1920   1.886       .  S
O1916      V2228   1.884   1_556  S
O1917      V1920   1.857       .  S
O1918      V2228   1.865       .  S
V1919      O2219   1.856       .  S
V1919      O2221   1.886       .  S
V1920      O2224   1.884       .  S
V1920      O2226   1.865       .  S
C1922      C1993   1.404       .  S
C1924      C2089   1.442       .  S
C1925      N1926   1.349       .  A
C1925      N1930   1.397       .  A
C1925      C1951   1.520       .  S
N1926      C1927   1.350       .  A
C1927      N2236   1.348   1_554  A
N1928      C2235   1.348       .  A
N1928      C1929   1.345       .  A
C1929      N2238   1.398       .  A
C1929      C2019   1.527       .  S
N1930      C2237   1.398   1_554  A
C1931      H1932   1.111       .  S
C1931      C1937   1.538       .  S
C1931      C1936   1.563       .  S
C1931      C1935   1.547       .  S
C1933      H1934   1.111       .  S
C1933      C1939   1.568       .  S
C1933      C1938   1.548       .  S
C1933      C1940   1.570       .  S
C1935      C1938   1.416       .  D
C1936      C1939   1.415       .  D
C1937      C1941   1.526       .  S
C1937      C1940   1.404       .  D
C1939      C2053   1.520       .  S
C1940      C2109   1.514       .  S
C1941      N1942   1.346       .  A
C1941      N1946   1.397       .  A
N1942      C1943   1.350       .  A
C1943      N1944   1.352       .  A
C1943      C2126   1.446       .  S
N1944      C1945   1.350       .  A
C1945      N1946   1.396       .  A
C1945      C1954   1.522       .  S
C1947      H1948   1.110       .  S
C1947      C1953   1.548       .  S
C1947      C1952   1.569       .  S
C1947      C1951   1.568       .  S
C1949      H1950   1.111       .  S
C1949      C1955   1.539       .  S
C1949      C1954   1.564       .  S
C1949      C1956   1.547       .  S
C1951      C1954   1.415       .  D
C1952      C1955   1.404       .  D
C1953      C2095   1.537       .  S
C1953      C1956   1.416       .  D
C1955      C1961   1.526       .  S
C1957      N1958   1.350       .  A
C1957      N1962   1.395       .  A
C1957      C2104   1.522       .  S
N1958      C1959   1.352       .  A
C1959      N1960   1.350       .  A
C1959      C2141   1.446       .  S
N1960      C1961   1.346       .  A
C1961      N1962   1.397       .  A
C1963      N1964   1.397       .  A
C1963      N1968   1.349       .  A
C1963      C2000   1.520       .  S
C1965      N1966   1.345       .  A
C1965      C2018   1.527       .  S
C1967      N1968   1.350       .  A
C1967      C1982   1.442       .  S
O1970      V1977   1.865       .  S
O1972      V1977   1.884       .  S
O1973      C1982   1.262       .  A
O1973      V1978   1.886       .  S
O1974      C1981   1.261       .  A
O1975      C1980   1.248       .  A
O1975      V1978   1.857       .  S
O1976      C1979   1.254       .  A
C1979      C2085   1.403       .  S
C1980      C2097   1.404       .  S
C1981      C2057   1.442   1_545  S
C1983      N1984   1.346       .  A
C1983      N1988   1.397       .  A
C1983      C2105   1.526       .  S
N1984      C1985   1.350       .  A
C1985      N1986   1.352       .  A
C1985      C2155   1.446       .  S
N1986      C1987   1.350       .  A
C1987      N1988   1.396       .  A
C1987      C2003   1.522       .  S
C1989      N1994   1.332       .  A
C1989      C2048   1.513       .  S
N1990      C1991   1.406       .  A
C1991      N1992   1.329       .  A
C1991      C1999   1.537       .  S
N1992      C1993   1.335       .  A
C1995      H1996   1.111       .  S
C1995      C2001   1.570       .  S
C1995      C2000   1.568       .  S
C1995      C1999   1.548       .  S
C1997      H1998   1.111       .  S
C1997      C2003   1.563       .  S
C1997      C2002   1.547       .  S
C1997      C2004   1.538       .  S
C1999      C2002   1.416       .  D
C2000      C2003   1.415       .  D
C2001      C2004   1.404       .  D
C2002      C2007   1.532       .  S
C2005      N2006   1.408       .  A
C2005      N2010   1.332       .  A
C2005      C2017   1.512       .  S
N2006      C2007   1.405       .  A
C2007      N2008   1.326       .  A
N2008      C2009   1.333       .  A
C2009      N2010   1.325       .  A
C2009      C2139   1.400       .  S
C2011      H2012   1.110       .  S
C2011      C2017   1.572       .  S
C2011      C2016   1.572       .  S
C2011      C2015   1.572       .  S
C2013      H2014   1.113       .  S
C2013      C2019   1.537       .  S
C2013      C2018   1.536       .  S
C2013      C2020   1.536       .  S
C2015      C2018   1.407       .  D
C2016      C2023   1.512       .  S
C2016      C2019   1.407       .  D
C2017      C2020   1.407       .  D
C2020      C2091   1.527       .  S
C2021      N2022   1.405       .  A
C2021      N2026   1.326       .  A
C2021      C2036   1.532       .  S
N2022      C2023   1.408       .  A
C2023      N2024   1.332       .  A
N2024      C2025   1.325       .  A
C2025      N2026   1.332       .  A
C2025      C2128   1.400       .  S
C2027      H2028   1.111       .  S
C2027      C2033   1.548       .  S
C2027      C2032   1.569       .  S
C2027      C2031   1.568       .  S
C2029      H2030   1.111       .  S
C2029      C2035   1.539       .  S
C2029      C2034   1.563       .  S
C2029      C2036   1.547       .  S
C2031      C2087   1.520       .  S
C2031      C2034   1.415       .  D
C2032      C2081   1.513       .  S
C2032      C2035   1.404       .  D
C2033      C2113   1.537       .  S
C2033      C2036   1.416       .  D
C2034      C2037   1.522       .  S
C2037      N2038   1.350       .  A
C2037      N2042   1.395       .  A
N2038      C2039   1.352       .  A
C2039      N2040   1.350       .  A
C2039      C2142   1.446       .  S
N2040      C2041   1.346       .  A
C2041      N2042   1.397       .  A
C2041      C2051   1.526       .  S
C2043      H2044   1.111       .  S
C2043      C2049   1.568       .  S
C2043      C2048   1.569       .  S
C2043      C2047   1.548       .  S
C2045      H2046   1.111       .  S
C2045      C2051   1.538       .  S
C2045      C2050   1.547       .  S
C2045      C2052   1.564       .  S
C2047      C2083   1.537       .  S
C2047      C2050   1.416       .  D
C2048      C2051   1.404       .  D
C2049      C2052   1.415       .  D
C2050      C2079   1.532       .  S
C2053      N2058   1.349       .  A
N2054      C2055   1.398       .  A
C2055      N2056   1.345       .  A
C2055      C2066   1.527       .  S
N2056      C2057   1.348       .  A
C2059      H2060   1.110       .  S
C2059      C2065   1.572       .  S
C2059      C2064   1.572       .  S
C2059      C2063   1.572       .  S
C2061      H2062   1.113       .  S
C2061      C2067   1.536       .  S
C2061      C2066   1.536       .  S
C2061      C2068   1.536       .  S
C2063      C2075   1.512       .  S
C2063      C2066   1.407       .  D
C2064      C2067   1.407       .  D
C2065      C2069   1.512       .  S
C2065      C2068   1.407       .  D
C2069      N2070   1.408       .  A
C2069      N2074   1.332       .  A
N2070      C2071   1.405       .  A
C2071      N2072   1.326       .  A
C2071      C2103   1.532       .  S
N2072      C2073   1.332       .  A
C2073      N2074   1.325       .  A
C2073      C2127   1.400   1_554  S
C2075      N2076   1.332       .  A
C2075      N2080   1.408       .  A
N2076      C2077   1.325       .  A
C2077      N2078   1.332       .  A
C2077      C2154   1.400       .  S
N2078      C2079   1.326       .  A
C2079      N2080   1.405       .  A
C2081      N2086   1.332       .  A
N2082      C2083   1.406       .  A
C2083      N2084   1.329       .  A
N2084      C2085   1.335       .  A
C2087      N2088   1.349       .  A
C2089      N2090   1.348       .  A
N2090      C2091   1.344       .  A
C2091      N2092   1.398       .  A
C2093      N2094   1.409       .  A
C2093      N2098   1.332       .  A
C2093      C2108   1.514       .  S
C2095      N2096   1.329       .  A
C2097      N2098   1.326       .  A
C2099      H2100   1.111       .  S
C2099      C2105   1.539       .  S
C2099      C2104   1.563       .  S
C2099      C2103   1.547       .  S
C2101      H2102   1.111       .  S
C2101      C2107   1.568       .  S
C2101      C2106   1.548       .  S
C2101      C2108   1.570       .  S
C2103      C2106   1.416       .  D
C2104      C2107   1.415       .  D
C2105      C2108   1.404       .  D
C2109      N2110   1.332       .  A
C2109      N2422   1.409       .  A
N2110      C2419   1.326       .  A
C2111      N2418   1.326       .  A
C2111      N2112   1.335       .  A
N2112      C2113   1.329       .  A
C2113      N2114   1.406       .  A
N2114      C2417   1.409       .  A
O2115      C2125   1.261       .  A
O2115      V2123   1.885       .  S
O2116      C2126   1.263       .  A
O2116      V2431   1.888   1_554  S
O2117      C2127   1.254       .  A
O2117      V2431   1.866       .  S
O2118      C2128   1.248       .  A
O2118      V2123   1.858       .  S
O2119      C2128   1.254       .  A
O2119      V2124   1.866       .  S
O2120      C2127   1.248       .  A
O2120      V2432   1.858   1_556  S
O2121      C2126   1.261       .  A
O2121      V2432   1.885       .  S
O2122      C2125   1.263       .  A
O2122      V2124   1.888       .  S
V2123      O2424   1.888       .  S
V2123      O2425   1.866       .  S
V2123      V2124   2.109       .  T
V2124      O2428   1.858       .  S
V2124      O2429   1.885       .  S
O2129      C2139   1.248       .  A
O2129      V2137   1.858       .  S
O2130      C2140   1.254       .  A
O2131      C2141   1.261       .  A
O2131      V2137   1.885       .  S
O2132      C2142   1.263       .  A
O2133      C2142   1.261       .  A
O2134      C2141   1.263       .  A
O2134      V2138   1.888       .  S
O2135      C2140   1.248       .  A
O2136      C2139   1.254       .  A
O2136      V2138   1.866       .  S
V2137      V2138   2.109       .  T
O2143      C2153   1.254       .  A
O2144      C2154   1.248       .  A
O2144      V2151   1.858       .  S
O2145      C2155   1.261       .  A
O2145      V2151   1.885       .  S
O2146      C2156   1.263       .  A
O2147      C2156   1.261       .  A
O2148      C2155   1.263       .  A
O2148      V2152   1.888       .  S
O2149      C2154   1.254       .  A
O2149      V2152   1.866       .  S
O2150      C2153   1.248       .  A
V2151      V2152   2.109       .  T
C2157      N2158   1.405       .  A
C2157      N2162   1.326       .  A
C2157      C2264   1.532       .  S
N2158      C2159   1.408       .  A
C2159      N2160   1.332       .  A
C2159      C2323   1.512       .  S
N2160      C2161   1.325       .  A
C2161      N2162   1.332       .  A
C2161      C2461   1.400   1_655  S
C2163      N2164   1.408       .  A
C2163      N2168   1.332       .  A
C2163      C2372   1.512       .  S
N2164      C2165   1.405       .  A
C2165      N2166   1.326       .  A
C2165      C2243   1.532       .  S
N2166      C2167   1.333       .  A
C2167      N2168   1.325       .  A
C2167      C2448   1.400   1_565  S
C2169      N2170   1.350       .  A
C2169      N2174   1.396       .  A
C2169      C2360   1.522       .  S
N2170      C2171   1.352       .  A
C2171      N2172   1.350       .  A
C2171      C2433   1.446       .  S
N2172      C2173   1.346       .  A
C2173      N2174   1.397       .  A
C2173      C2312   1.526       .  S
C2175      N2176   1.332       .  A
C2175      N2180   1.409       .  A
C2175      C2309   1.514       .  S
N2176      C2177   1.326       .  A
C2177      C2210   1.403       .  S
N2178      C2179   1.329       .  A
C2179      C2414   1.537       .  S
C2181      N2182   1.349       .  A
C2181      N2186   1.397       .  A
C2181      C2415   1.520       .  S
N2182      C2183   1.351       .  A
C2183      C2231   1.442       .  S
N2184      C2185   1.344       .  A
C2185      C2375   1.527       .  S
C2187      N2188   1.350       .  A
C2187      N2192   1.396       .  A
C2187      C2244   1.522       .  S
N2188      C2189   1.352       .  A
C2189      N2190   1.350       .  A
C2189      C2464   1.446       .  S
N2190      C2191   1.346       .  A
C2191      N2192   1.397       .  A
C2191      C2343   1.526       .  S
C2193      N2194   1.349       .  A
C2193      N2198   1.397       .  A
C2193      C2357   1.520       .  S
N2194      C2195   1.350       .  A
C2195      C2212   1.442       .  S
N2196      C2197   1.345       .  A
C2197      C2376   1.527       .  S
O2199      C2209   1.254   1_556  A
O2200      C2210   1.248       .  A
O2200      V2207   1.857       .  S
O2202      C2212   1.262       .  A
O2202      V2207   1.886       .  S
O2203      V2208   1.884       .  S
O2204      C2211   1.262       .  A
O2205      V2208   1.865       .  S
C2209      C2419   1.404       .  S
C2211      C2235   1.442   1_455  S
C2213      N2218   1.329       .  A
C2213      C2246   1.536       .  S
N2214      C2215   1.409       .  A
C2215      N2216   1.332       .  A
C2215      C2260   1.513       .  S
N2216      C2217   1.326       .  A
C2217      C2229   1.403       .  S
O2219      C2229   1.248       .  A
O2220      C2230   1.254       .  A
O2220      V2227   1.865       .  S
O2221      C2231   1.262       .  A
O2222      C2232   1.261       .  A
O2222      V2227   1.884   1_554  S
O2223      V2228   1.886       .  S
O2225      V2228   1.857   1_556  S
C2230      C2301   1.404       .  S
C2232      C2397   1.442   1_554  S
C2233      N2234   1.349       .  A
C2233      N2238   1.397       .  A
C2233      C2259   1.520       .  S
N2234      C2235   1.350       .  A
N2236      C2237   1.345       .  A
C2237      C2327   1.527       .  S
C2239      H2240   1.111       .  S
C2239      C2245   1.538       .  S
C2239      C2244   1.563       .  S
C2239      C2243   1.547       .  S
C2241      H2242   1.111       .  S
C2241      C2247   1.568       .  S
C2241      C2246   1.548       .  S
C2241      C2248   1.570       .  S
C2243      C2246   1.416       .  D
C2244      C2247   1.415       .  D
C2245      C2249   1.526       .  S
C2245      C2248   1.404       .  D
C2247      C2361   1.520       .  S
C2248      C2417   1.514       .  S
C2249      N2250   1.346       .  A
C2249      N2254   1.397       .  A
N2250      C2251   1.350       .  A
C2251      N2252   1.352       .  A
C2251      C2434   1.446       .  S
N2252      C2253   1.350       .  A
C2253      N2254   1.396       .  A
C2253      C2262   1.522       .  S
C2255      H2256   1.110       .  S
C2255      C2261   1.548       .  S
C2255      C2260   1.569       .  S
C2255      C2259   1.568       .  S
C2257      H2258   1.111       .  S
C2257      C2263   1.539       .  S
C2257      C2262   1.564       .  S
C2257      C2264   1.547       .  S
C2259      C2262   1.415       .  D
C2260      C2263   1.404       .  D
C2261      C2403   1.537       .  S
C2261      C2264   1.416       .  D
C2263      C2269   1.526       .  S
C2265      N2266   1.350       .  A
C2265      N2270   1.395       .  A
C2265      C2412   1.522       .  S
N2266      C2267   1.352       .  A
C2267      N2268   1.350       .  A
C2267      C2449   1.446       .  S
N2268      C2269   1.346       .  A
C2269      N2270   1.397       .  A
C2271      N2272   1.397       .  A
C2271      N2276   1.349       .  A
C2271      C2308   1.520       .  S
C2273      N2274   1.345       .  A
C2273      C2326   1.527       .  S
C2275      N2276   1.350       .  A
C2275      C2290   1.442       .  S
O2278      V2285   1.865       .  S
O2280      V2285   1.884       .  S
O2281      C2290   1.262       .  A
O2281      V2286   1.886       .  S
O2282      C2289   1.261       .  A
O2283      C2288   1.248       .  A
O2283      V2286   1.857       .  S
O2284      C2287   1.254       .  A
C2287      C2393   1.403       .  S
C2288      C2405   1.404       .  S
C2289      C2365   1.442   1_545  S
C2291      N2292   1.346       .  A
C2291      N2296   1.397       .  A
C2291      C2413   1.526       .  S
N2292      C2293   1.350       .  A
C2293      N2294   1.352       .  A
C2293      C2463   1.446       .  S
N2294      C2295   1.350       .  A
C2295      N2296   1.396       .  A
C2295      C2311   1.522       .  S
C2297      N2302   1.332       .  A
C2297      C2356   1.513       .  S
N2298      C2299   1.406       .  A
C2299      N2300   1.329       .  A
C2299      C2307   1.537       .  S
N2300      C2301   1.335       .  A
C2303      H2304   1.111       .  S
C2303      C2309   1.570       .  S
C2303      C2308   1.568       .  S
C2303      C2307   1.548       .  S
C2305      H2306   1.111       .  S
C2305      C2311   1.563       .  S
C2305      C2310   1.547       .  S
C2305      C2312   1.538       .  S
C2307      C2310   1.416       .  D
C2308      C2311   1.415       .  D
C2309      C2312   1.404       .  D
C2310      C2315   1.532       .  S
C2313      N2314   1.408       .  A
C2313      N2318   1.332       .  A
C2313      C2325   1.512       .  S
N2314      C2315   1.405       .  A
C2315      N2316   1.326       .  A
N2316      C2317   1.333       .  A
C2317      N2318   1.325       .  A
C2317      C2447   1.400       .  S
C2319      H2320   1.110       .  S
C2319      C2325   1.572       .  S
C2319      C2324   1.572       .  S
C2319      C2323   1.572       .  S
C2321      H2322   1.113       .  S
C2321      C2327   1.537       .  S
C2321      C2326   1.536       .  S
C2321      C2328   1.536       .  S
C2323      C2326   1.407       .  D
C2324      C2331   1.512       .  S
C2324      C2327   1.407       .  D
C2325      C2328   1.407       .  D
C2328      C2399   1.527       .  S
C2329      N2330   1.405       .  A
C2329      N2334   1.326       .  A
C2329      C2344   1.532       .  S
N2330      C2331   1.408       .  A
C2331      N2332   1.332       .  A
N2332      C2333   1.325       .  A
C2333      N2334   1.332       .  A
C2333      C2436   1.400   1_556  S
C2335      H2336   1.111       .  S
C2335      C2341   1.548       .  S
C2335      C2340   1.569       .  S
C2335      C2339   1.568       .  S
C2337      H2338   1.111       .  S
C2337      C2343   1.539       .  S
C2337      C2342   1.563       .  S
C2337      C2344   1.547       .  S
C2339      C2395   1.520       .  S
C2339      C2342   1.415       .  D
C2340      C2389   1.513       .  S
C2340      C2343   1.404       .  D
C2341      C2421   1.537       .  S
C2341      C2344   1.416       .  D
C2342      C2345   1.522       .  S
C2345      N2346   1.350       .  A
C2345      N2350   1.395       .  A
N2346      C2347   1.352       .  A
C2347      N2348   1.350       .  A
C2347      C2450   1.446       .  S
N2348      C2349   1.346       .  A
C2349      N2350   1.397       .  A
C2349      C2359   1.526       .  S
C2351      H2352   1.111       .  S
C2351      C2357   1.568       .  S
C2351      C2356   1.569       .  S
C2351      C2355   1.548       .  S
C2353      H2354   1.111       .  S
C2353      C2359   1.538       .  S
C2353      C2358   1.547       .  S
C2353      C2360   1.564       .  S
C2355      C2391   1.537       .  S
C2355      C2358   1.416       .  D
C2356      C2359   1.404       .  D
C2357      C2360   1.415       .  D
C2358      C2387   1.532       .  S
C2361      N2366   1.349       .  A
N2362      C2363   1.398       .  A
C2363      N2364   1.345       .  A
C2363      C2374   1.527       .  S
N2364      C2365   1.348       .  A
C2367      H2368   1.110       .  S
C2367      C2373   1.572       .  S
C2367      C2372   1.572       .  S
C2367      C2371   1.572       .  S
C2369      H2370   1.113       .  S
C2369      C2375   1.536       .  S
C2369      C2374   1.536       .  S
C2369      C2376   1.536       .  S
C2371      C2383   1.512       .  S
C2371      C2374   1.407       .  D
C2372      C2375   1.407       .  D
C2373      C2377   1.512       .  S
C2373      C2376   1.407       .  D
C2377      N2378   1.408       .  A
C2377      N2382   1.332       .  A
N2378      C2379   1.405       .  A
C2379      N2380   1.326       .  A
C2379      C2411   1.532       .  S
N2380      C2381   1.332       .  A
C2381      N2382   1.325       .  A
C2381      C2435   1.400       .  S
C2383      N2384   1.332       .  A
C2383      N2388   1.408       .  A
N2384      C2385   1.325       .  A
C2385      N2386   1.332       .  A
C2385      C2462   1.400       .  S
N2386      C2387   1.326       .  A
C2387      N2388   1.405       .  A
C2389      N2394   1.332       .  A
N2390      C2391   1.406       .  A
C2391      N2392   1.329       .  A
N2392      C2393   1.335       .  A
C2395      N2396   1.349       .  A
C2397      N2398   1.348       .  A
N2398      C2399   1.344       .  A
C2399      N2400   1.398       .  A
C2401      N2402   1.409       .  A
C2401      N2406   1.332       .  A
C2401      C2416   1.514       .  S
C2403      N2404   1.329       .  A
C2405      N2406   1.326       .  A
C2407      H2408   1.111       .  S
C2407      C2413   1.539       .  S
C2407      C2412   1.563       .  S
C2407      C2411   1.547       .  S
C2409      H2410   1.111       .  S
C2409      C2415   1.568       .  S
C2409      C2414   1.548       .  S
C2409      C2416   1.570       .  S
C2411      C2414   1.416       .  D
C2412      C2415   1.415       .  D
C2413      C2416   1.404       .  D
C2417      N2418   1.332       .  A
C2419      N2420   1.335   1_554  A
N2420      C2421   1.329       .  A
C2421      N2422   1.406   1_556  A
O2423      C2433   1.261       .  A
O2423      V2431   1.885       .  S
O2424      C2434   1.263       .  A
O2425      C2435   1.254       .  A
O2426      C2436   1.248       .  A
O2426      V2431   1.858   1_554  S
O2427      C2436   1.254       .  A
O2427      V2432   1.866       .  S
O2428      C2435   1.248       .  A
O2429      C2434   1.261       .  A
O2430      C2433   1.263       .  A
O2430      V2432   1.888   1_556  S
V2431      V2432   2.109   1_556  T
O2437      C2447   1.248       .  A
O2437      V2445   1.858       .  S
O2438      C2448   1.254       .  A
O2439      C2449   1.261       .  A
O2439      V2445   1.885       .  S
O2440      C2450   1.263       .  A
O2441      C2450   1.261       .  A
O2442      C2449   1.263       .  A
O2442      V2446   1.888       .  S
O2443      C2448   1.248       .  A
O2444      C2447   1.254       .  A
O2444      V2446   1.866       .  S
V2445      V2446   2.109       .  T
O2451      C2461   1.254       .  A
O2452      C2462   1.248       .  A
O2452      V2459   1.858       .  S
O2453      C2463   1.261       .  A
O2453      V2459   1.885       .  S
O2454      C2464   1.263       .  A
O2455      C2464   1.261       .  A
O2456      C2463   1.263       .  A
O2456      V2460   1.888       .  S
O2457      C2462   1.254       .  A
O2457      V2460   1.866       .  S
O2458      C2461   1.248       .  A
V2459      V2460   2.109       .  T
