geometry optimzed in LAMMPS
_audit_creation_date              2020-12-01 
_audit_creation_method            'lammps2cif' 
_symmetry_space_group_name_H-M    'P1' 
_symmetry_Int_Tables_number       1 
_symmetry_cell_setting            triclinic 
loop_ 
_symmetry_equiv_pos_as_xyz 
  x,y,z 
_cell_length_a                    26.31871192 
_cell_length_b                    25.96369554575601 
_cell_length_c                    25.73591043821456 
_cell_angle_alpha                 96.99606779920548 
_cell_angle_beta                  86.6742651083136 
_cell_angle_gamma                 92.7335948812526 
loop_ 
_atom_site_label 
_atom_site_type_symbol 
_atom_site_fract_x 
_atom_site_fract_y 
_atom_site_fract_z 
_atom_site_charge 
C1          C  0.89137849  0.80331291  0.87856874     0.03400
C2          C  0.92091346  0.82984830  0.84229065    -0.12800
C3          C  0.90310251  0.87451345  0.82499982     0.00900
C4          C  0.85567410  0.89253409  0.84433934    -0.11300
C5          C  0.82586444  0.86654223  0.88049962     0.03400
C6          C  0.84354290  0.82144971  0.89725478    -0.10700
H7          H  0.95773828  0.81570146  0.82756945     0.09000
H8          H  0.84087821  0.92595711  0.82969563     0.06500
H9          H  0.82102356  0.80158371  0.92592374     0.06300
C10         C  0.84305475  0.73416785  0.35717126     0.03400
C11         C  0.86708781  0.71065268  0.31095222    -0.12800
C12         C  0.84584439  0.66572980  0.28315229     0.00900
C13         C  0.80051835  0.64299266  0.30308090    -0.11300
C14         C  0.77578716  0.66531693  0.34994215     0.03400
C15         C  0.79727416  0.71125827  0.37653091    -0.10700
H16         H  0.90309435  0.72709652  0.29669062     0.09000
H17         H  0.78424221  0.60814855  0.28174577     0.06500
H18         H  0.77794337  0.72978100  0.41169108     0.06300
O19         O  0.94518578  0.42734441  0.93483769    -0.80600
O20         O  0.12930702  0.51967840  0.04400693    -0.65300
O21         O  0.99502554  0.46593113  0.02084459    -1.11900
C22         C  0.97791512  0.63332343  0.96438178     1.06200
O23         O  0.09006236  0.58509621  0.08772503    -0.78500
O24         O  0.99759346  0.62075589  0.08432114    -0.66100
Ni25       Ni  0.98192684  0.39921480  0.98590943     1.34900
C26         C  0.95775875  0.59266168  0.09113737     0.85000
O27         O  0.08171383  0.42768089  0.05958864    -0.79100
O28         O  0.01909360  0.36883934  0.03559222    -0.89400
C29         C  0.13077919  0.56182190  0.07460862     0.84600
O30         O  0.03918856  0.39416114  0.93733770    -0.67600
O31         O  0.01937762  0.64575644  0.98719064    -0.86800
C32         C  0.07910122  0.42230072  0.93061206     0.85400
C33         C  0.05966857  0.38252932  0.05970086     1.07000
H34         H  0.05825471  0.54899731  0.96633288     0.38800
O35         O  0.04176326  0.54862283  0.00088180    -1.09500
O36         O  0.94608774  0.55238969  0.06013619    -0.66200
Ni37       Ni  0.97363065  0.52548012  0.99124355     1.26300
O38         O  0.09087343  0.46225328  0.96192123    -0.66400
O39         O  0.95542213  0.58816812  0.96348149    -0.78700
C40         C  0.90536173  0.45281720  0.94678837     0.84800
O41         O  0.90754643  0.49515748  0.97722333    -0.65900
Ni42       Ni  0.05525751  0.61472812  0.03668483     1.27400
Ni43       Ni  0.06321526  0.48935623  0.03059396     1.26100
H44         H  0.97854788  0.46569974  0.05545521     0.39300
C45         C  0.66034198  0.29233982  0.84394756     0.03400
C46         C  0.70167131  0.31741685  0.86960187    -0.12800
C47         C  0.72386963  0.36327671  0.85359210     0.00900
C48         C  0.70421215  0.38452287  0.81219916    -0.11300
C49         C  0.66223247  0.36035778  0.78678616     0.03400
C50         C  0.64042982  0.31395655  0.80248484    -0.10700
H51         H  0.71610067  0.30167272  0.90274369     0.09000
H52         H  0.72209538  0.41956423  0.79922052     0.06500
H53         H  0.60744065  0.29550124  0.78349854     0.06300
O54         O  0.44392896  0.09269903  0.09345717    -0.80600
O55         O  0.62757407  0.99659692  0.96916437    -0.65300
O56         O  0.49706056  0.05170834  0.00360936    -1.11900
C57         C  0.46379109  0.88777526  0.06706015     1.06200
O58         O  0.59047944  0.92537700  0.93155550    -0.78500
O59         O  0.49077770  0.89856042  0.93871120    -0.66100
Ni60       Ni  0.48984190  0.11863085  0.04133691     1.34900
C61         C  0.45381080  0.92744780  0.93544983     0.85000
O62         O  0.58664097  0.08637387  0.95335546    -0.79100
O63         O  0.53385529  0.14809228  0.99021713    -0.89400
C64         C  0.63071791  0.95227626  0.94277191     0.84600
O65         O  0.54413400  0.11874901  0.08747348    -0.67600
O66         O  0.50185727  0.87238350  0.03721175    -0.86800
C67         C  0.58251969  0.09102072  0.08751609     0.85400
C68         C  0.56958068  0.13210669  0.95743193     1.07000
H69         H  0.55237849  0.96901912  0.05364127     0.38800
O70         O  0.53666687  0.96856907  0.02054982    -1.09500
O71         O  0.44289775  0.96544975  0.96961628    -0.66200
Ni72       Ni  0.46985765  0.99316223  0.03599344     1.26300
O73         O  0.59302353  0.05462249  0.05154735    -0.66400
O74         O  0.44537606  0.93271624  0.06832932    -0.78700
C75         C  0.40302599  0.06737393  0.08131915     0.84800
O76         O  0.40523938  0.02371934  0.05309742    -0.65900
Ni77       Ni  0.54518235  0.90082337  0.98495723     1.27400
Ni78       Ni  0.56330220  0.02661086  0.98685638     1.26100
H79         H  0.48103817  0.05252990  0.97094364     0.39300
C80         C  0.14490297  0.21827130  0.15775857     0.03400
C81         C  0.19211446  0.19866096  0.13833757    -0.12800
C82         C  0.20929751  0.15316131  0.15501638     0.00900
C83         C  0.17965296  0.12831144  0.19234026    -0.11300
C84         C  0.13351833  0.14844156  0.21339832     0.03400
C85         C  0.11626132  0.19338372  0.19608781    -0.10700
H86         H  0.21437520  0.21741964  0.10868205     0.09000
H87         H  0.19346763  0.09419892  0.20656790     0.06500
H88         H  0.08037653  0.20879701  0.21223775     0.06300
C89         C  0.30490819  0.87826088  0.66568641     0.03400
C90         C  0.33062941  0.83704588  0.63659542    -0.12800
C91         C  0.36990989  0.81381738  0.65809618     0.00900
C92         C  0.38517272  0.83306356  0.70805189    -0.11300
C93         C  0.35943334  0.87300003  0.73872842     0.03400
C94         C  0.31933434  0.89612589  0.71709966    -0.10700
H95         H  0.31845595  0.82140634  0.59809897     0.09000
H96         H  0.41657984  0.81540700  0.72372106     0.06500
H97         H  0.29932871  0.92735245  0.74011081     0.06300
O98         O  0.09646987  0.05731782  0.42571611    -0.80600
O99         O  0.00961212  0.99830582  0.63482527    -0.65300
O100        O  0.05475568  0.98685612  0.49134609    -1.11900
C101        C  0.89196827  0.04810654  0.46605589     1.06200
O102        O  0.93533539  0.95901782  0.61379338    -0.78500
O103        O  0.91251710  0.93211502  0.51452355    -0.66100
Ni104      Ni  0.12092906  0.01028603  0.46994476     1.34900
C105        C  0.93306273  0.92032708  0.46917827     0.85000
O106        O  0.09692726  0.96604027  0.58481898    -0.79100
O107        O  0.15008937  0.96574765  0.51320648    -0.89400
C108        C  0.97039659  0.97059040  0.64567755     0.84600
O109        O  0.13081646  0.06734693  0.52269833    -0.67600
O110        O  0.87836210  0.02845892  0.50813038    -0.86800
C111        C  0.10483362  0.08607273  0.56299524     0.85400
C112        C  0.13992411  0.95637518  0.56034334     1.07000
H113        H  0.97543054  0.05945222  0.55374160     0.38800
O114        O  0.97558219  0.02288496  0.54063672    -1.09500
O115        O  0.96540008  0.95032332  0.44736644    -0.66200
Ni116      Ni  0.99713144  0.01833599  0.46834823     1.26300
O117        O  0.06399569  0.06396993  0.57992051    -0.66400
O118        O  0.93809864  0.04989892  0.44784382    -0.78700
C119        C  0.06400775  0.04735056  0.39080678     0.84800
O120        O  0.02494668  0.01789588  0.39790329    -0.65900
Ni121      Ni  0.91024688  0.99508918  0.56011844     1.27400
Ni122      Ni  0.03512938  0.99422683  0.56381314     1.26100
H123        H  0.05249237  0.95003845  0.47917245     0.39300
C124        C  0.73585243  0.13287626  0.35450626     0.03400
C125        C  0.71085249  0.17437851  0.38374573    -0.12800
C126        C  0.67142086  0.19793193  0.36277567     0.00900
C127        C  0.65702310  0.18041865  0.31212915    -0.11300
C128        C  0.68243662  0.14025279  0.28113827     0.03400
C129        C  0.72193973  0.11613002  0.30274992    -0.10700
H130        H  0.72201714  0.18831633  0.42305341     0.09000
H131        H  0.62617201  0.19897652  0.29649343     0.06500
H132        H  0.74163809  0.08472062  0.27969448     0.06300
C133        C  0.18941751  0.28126087  0.66283767     0.03400
C134        C  0.23391558  0.30458502  0.64128062    -0.12800
C135        C  0.25707924  0.34957332  0.66751918     0.00900
C136        C  0.23445468  0.37201561  0.71546744    -0.11300
C137        C  0.18954851  0.34984109  0.73712823     0.03400
C138        C  0.16727598  0.30479807  0.71015677    -0.10700
H139        H  0.25132523  0.28701492  0.60465720     0.09000
H140        H  0.25252077  0.40605152  0.73648403     0.06500
H141        H  0.13309435  0.28705805  0.72698281     0.06300
C142        C  0.37424900  0.72433347  0.17859021     0.03400
C143        C  0.39465276  0.70125249  0.21912382    -0.12800
C144        C  0.37409874  0.65335543  0.23260775     0.00900
C145        C  0.33329189  0.62878187  0.20564067    -0.11300
C146        C  0.31233761  0.65202834  0.16619519     0.03400
C147        C  0.33264887  0.69970020  0.15295576    -0.10700
H148        H  0.42702867  0.71972306  0.23916198     0.09000
H149        H  0.31705832  0.59208914  0.21627746     0.06500
H150        H  0.31691852  0.71678793  0.12131315     0.06300
O151        O  0.45451901  0.58591845  0.59698804    -0.80600
O152        O  0.54176760  0.38820668  0.48909036    -0.65300
O153        O  0.53273360  0.52791910  0.55044683    -1.11900
C154        C  0.46307778  0.54751213  0.38766765     1.06200
O155        O  0.58050960  0.41807081  0.41947246    -0.78500
O156        O  0.58153319  0.51583268  0.39432687    -0.66100
Ni157      Ni  0.50615868  0.54540900  0.61945277     1.34900
C158        C  0.59174913  0.55787024  0.42297106     0.85000
O159        O  0.56733341  0.43728450  0.58250604    -0.79100
O160        O  0.55600665  0.50518121  0.64489107    -0.89400
C161        C  0.57156763  0.38203003  0.44848605     0.84600
O162        O  0.45693823  0.48974532  0.62494083    -0.67600
O163        O  0.48293188  0.50418339  0.37114719    -0.86800
C164        C  0.44464141  0.44944404  0.59462781     0.85400
C165        C  0.57348914  0.46069684  0.62853048     1.07000
H166        H  0.46853578  0.46544775  0.46590276     0.38800
O167        O  0.50310384  0.47976386  0.46588485    -1.09500
O168        O  0.56495250  0.57383997  0.46423213    -0.66200
Ni169      Ni  0.49933503  0.55049723  0.49376722     1.26300
O170        O  0.46939823  0.43528332  0.55169329    -0.66400
O171        O  0.46660164  0.57006977  0.43450201    -0.78700
C172        C  0.46282801  0.62405394  0.57058750     0.84800
O173        O  0.49119648  0.61926976  0.52868049    -0.65900
Ni174      Ni  0.53065846  0.46166424  0.39733184     1.27400
Ni175      Ni  0.53549159  0.45719771  0.52294970     1.26100
H176        H  0.56736450  0.54207208  0.54980086     0.39300
C177        C  0.41372132  0.57690758  0.25942935    -0.21100
C178        C  0.39612478  0.62700401  0.27302832    -0.09100
C179        C  0.39732482  0.64991992  0.32522683     0.29800
C180        C  0.41775172  0.62346873  0.36298016    -0.21100
C181        C  0.43673126  0.57352645  0.34917989    -0.09100
C182        C  0.43361508  0.55023194  0.29683669     0.29800
F183        F  0.45029265  0.50183247  0.28114498    -0.19600
H184        H  0.41228314  0.55844612  0.21940641     0.18100
H185        H  0.41913621  0.64231728  0.40282820     0.18100
F186        F  0.37761978  0.69719895  0.33977673    -0.19600
C187        C  0.34610296  0.38490439  0.68091072    -0.21100
C188        C  0.30653585  0.37145377  0.64678522    -0.09100
C189        C  0.31486798  0.37945447  0.59362968     0.29800
C190        C  0.36092608  0.40267560  0.57599678    -0.21100
C191        C  0.39921233  0.41841195  0.61096883    -0.09100
C192        C  0.39191974  0.40802384  0.66332092     0.29800
F193        F  0.42930695  0.42010810  0.69750057    -0.19600
H194        H  0.34145257  0.37763104  0.72151037     0.18100
H195        H  0.36582655  0.41039669  0.53554524     0.18100
F196        F  0.27773796  0.36716310  0.55925312    -0.19600
C197        C  0.67515893  0.28996938  0.40211792    -0.21100
C198        C  0.64681870  0.24309118  0.39213801    -0.09100
C199        C  0.59425382  0.24127585  0.40542300     0.29800
C200        C  0.57028036  0.28622063  0.42766816    -0.21100
C201        C  0.59817934  0.33360759  0.43487841    -0.09100
C202        C  0.65091590  0.33520944  0.42260167     0.29800
F203        F  0.67858506  0.38083326  0.42898101    -0.19600
H204        H  0.71557828  0.29199544  0.39145644     0.18100
H205        H  0.52948172  0.28470164  0.43623857     0.18100
F206        F  0.56594818  0.19651787  0.39505439    -0.19600
C207        C  0.17784088  0.14362398  0.59345094    -0.22700
C208        C  0.12485063  0.13523146  0.59120556    -0.09100
C209        C  0.09285742  0.17458570  0.61383548     0.29800
C210        C  0.11394192  0.22218136  0.63639524    -0.21100
C211        C  0.16720811  0.23097101  0.63778103    -0.09100
C212        C  0.19886719  0.19047907  0.61692054     0.29800
F213        F  0.25016397  0.19535171  0.62047716    -0.19600
H214        H  0.20324104  0.11338849  0.57729428     0.18100
H215        H  0.08851293  0.25248470  0.65214531     0.18100
F216        F  0.04147840  0.16785835  0.61236901    -0.19600
C217        C  0.76320918  0.08896855  0.42828325    -0.21100
C218        C  0.77543298  0.10729754  0.37984994    -0.09100
C219        C  0.82593917  0.10507839  0.35907679     0.29800
C220        C  0.86370140  0.08618298  0.38728946    -0.21100
C221        C  0.85173139  0.06869866  0.43652191    -0.09100
C222        C  0.80050240  0.06953993  0.45618260     0.29800
F223        F  0.78604758  0.05206595  0.50263505    -0.19600
H224        H  0.72443101  0.09021322  0.44488203     0.18100
H225        H  0.90242794  0.08550624  0.37059786     0.18100
F226        F  0.83913839  0.12305682  0.31259931    -0.19600
C227        C  0.27081154  0.91475458  0.59045951    -0.21100
C228        C  0.26266263  0.90092753  0.64131424    -0.09100
C229        C  0.21354516  0.90481797  0.66579212     0.29800
C230        C  0.17338869  0.92192763  0.63930232    -0.21100
C231        C  0.18148518  0.93535393  0.58789984    -0.09100
C232        C  0.23117680  0.93172895  0.56403844     0.29800
F233        F  0.24221863  0.94512681  0.51515424    -0.19600
H234        H  0.30832896  0.91216494  0.57084785     0.18100
H235        H  0.13594893  0.92450974  0.65900580     0.18100
F236        F  0.20399956  0.89033623  0.71445140    -0.19600
C237        C  0.40915311  0.67564635  0.63791109    -0.21100
C238        C  0.43705222  0.67273315  0.58941903    -0.09100
C239        C  0.43983783  0.71620579  0.56132974     0.29800
C240        C  0.41655546  0.76212700  0.58275009    -0.21100
C241        C  0.39081069  0.76503282  0.63230333    -0.09100
C242        C  0.38638604  0.72107215  0.65910481     0.29800
F243        F  0.36020648  0.72223018  0.70627484    -0.19600
H244        H  0.40548429  0.64286484  0.66036227     0.18100
H245        H  0.41978737  0.79575622  0.56148537     0.18100
F246        F  0.46534096  0.71463656  0.51383445    -0.19600
C247        C  0.09001983  0.07173117  0.24989662    -0.21100
C248        C  0.10614551  0.12445855  0.25664875    -0.09100
C249        C  0.10217718  0.15247455  0.30675027     0.29800
C250        C  0.08553342  0.12731403  0.34986894    -0.21100
C251        C  0.07151399  0.07416399  0.34365180    -0.09100
C252        C  0.07207984  0.04675770  0.29312604     0.29800
F253        F  0.05926098  0.99521341  0.28615940    -0.19600
H254        H  0.09321407  0.04955889  0.21145487     0.18100
H255        H  0.08550941  0.14893716  0.38864288     0.18100
F256        F  0.11822826  0.20315819  0.31454979    -0.19600
C257        C  0.36845900  0.81152718  0.14749212    -0.21100
C258        C  0.39848892  0.77115638  0.15862029    -0.09100
C259        C  0.45052207  0.77225928  0.14337868     0.29800
C260        C  0.47142813  0.81152060  0.11538389    -0.21100
C261        C  0.44107308  0.85055877  0.10188993    -0.09100
C262        C  0.38952714  0.85114789  0.11956110     0.29800
F263        F  0.35888150  0.88800568  0.10729761    -0.19600
H264        H  0.32815711  0.81123092  0.15878552     0.18100
H265        H  0.51140580  0.81040321  0.10282142     0.18100
F266        F  0.48043216  0.73329320  0.15198412    -0.19600
C267        C  0.65615075  0.16471665  0.19613790    -0.21100
C268        C  0.66638099  0.12527797  0.22658781    -0.09100
C269        C  0.65473069  0.07326873  0.20694132     0.29800
C270        C  0.63010153  0.06174654  0.15963082    -0.21100
C271        C  0.61605742  0.10189025  0.13196812    -0.09100
C272        C  0.63076637  0.15333503  0.14977382     0.29800
F273        F  0.61944446  0.19281237  0.12289735    -0.19600
H274        H  0.66580171  0.20496960  0.20961831     0.18100
H275        H  0.61916198  0.02177347  0.14633281     0.18100
F276        F  0.66349112  0.03404667  0.23519982    -0.19600
C277        C  0.40932815  0.86360287  0.87218849    -0.21100
C278        C  0.42252165  0.91554481  0.88927934    -0.09100
C279        C  0.40936228  0.95446402  0.85944286     0.29800
C280        C  0.38600932  0.94093007  0.81164845    -0.21100
C281        C  0.37522294  0.88854689  0.79326036    -0.09100
C282        C  0.38539944  0.85016037  0.82520994     0.29800
F283        F  0.37351985  0.79923332  0.81029783    -0.19600
H284        H  0.41852052  0.83311829  0.89491086     0.18100
H285        H  0.37890036  0.97110038  0.78771633     0.18100
F286        F  0.42237648  0.00506038  0.87450666    -0.19600
C287        C  0.30307060  0.16312811  0.13601878    -0.21100
C288        C  0.25845299  0.13144555  0.13430968    -0.09100
C289        C  0.26146242  0.07857772  0.11473177     0.29800
C290        C  0.30845990  0.05786655  0.09756122    -0.21100
C291        C  0.35337572  0.08929573  0.10015964    -0.09100
C292        C  0.35013029  0.14242875  0.11936187     0.29800
F293        F  0.39224193  0.17477224  0.12143840    -0.19600
H294        H  0.30156415  0.20386399  0.15115970     0.18100
H295        H  0.30970671  0.01710722  0.08249963     0.18100
F296        F  0.21878989  0.04710931  0.11153239    -0.19600
C297        C  0.58444707  0.24897592  0.88297221    -0.21100
C298        C  0.63542614  0.24669711  0.86468848    -0.09100
C299        C  0.66362545  0.20388988  0.87254051     0.29800
C300        C  0.64159905  0.16526452  0.90105149    -0.21100
C301        C  0.59145963  0.16935650  0.92246750    -0.09100
C302        C  0.56251176  0.21080007  0.91164680     0.29800
F303        F  0.51315299  0.21510096  0.92953909    -0.19600
H304        H  0.56229679  0.28177267  0.87726098     0.18100
H305        H  0.66434795  0.13339797  0.90816032     0.18100
F306        F  0.71279986  0.20034342  0.85385316    -0.19600
C307        C  0.63120710  0.35728029  0.69656379    -0.21100
C308        C  0.64041213  0.38535704  0.74542496    -0.09100
C309        C  0.62955660  0.43813686  0.75460876     0.29800
C310        C  0.61009768  0.46251443  0.71545376    -0.21100
C311        C  0.60011209  0.43473588  0.66648139    -0.09100
C312        C  0.61119215  0.38165425  0.65717710     0.29800
F313        F  0.60147876  0.35289213  0.61088745    -0.19600
H314        H  0.63961242  0.31652708  0.68894916     0.18100
H315        H  0.60163939  0.50315997  0.72424055     0.18100
F316        F  0.63615843  0.46582868  0.80218946    -0.19600
C317        C  0.22166691  0.55482282  0.09449590    -0.21100
C318        C  0.17836129  0.58452413  0.09585455    -0.09100
C319        C  0.18038751  0.63673792  0.11862620     0.29800
C320        C  0.22440250  0.65811623  0.14090311    -0.21100
C321        C  0.26718993  0.62826427  0.14073129    -0.09100
C322        C  0.26597057  0.57652236  0.11704389     0.29800
F323        F  0.30765752  0.54740387  0.11518364    -0.19600
H324        H  0.22098351  0.51478489  0.07672789     0.18100
H325        H  0.22490404  0.69805973  0.15902175     0.18100
F326        F  0.14000206  0.66754113  0.11924681    -0.19600
C327        C  0.13319936  0.44187745  0.85099370    -0.21100
C328        C  0.11308066  0.40616422  0.88440147    -0.09100
C329        C  0.12239044  0.35324416  0.87132571     0.29800
C330        C  0.14925556  0.33606145  0.82472802    -0.21100
C331        C  0.16677590  0.37092962  0.78933837    -0.09100
C332        C  0.15970393  0.42447141  0.80355579     0.29800
F333        F  0.17583020  0.45959191  0.77057726    -0.19600
H334        H  0.12630502  0.48284132  0.86041534     0.18100
H335        H  0.15554705  0.29493163  0.81582001     0.18100
F336        F  0.10502893  0.31787739  0.90361037    -0.19600
C337        C  0.15112162  0.30913719  0.13182912    -0.21100
C338        C  0.12333144  0.26189764  0.13509214    -0.09100
C339        C  0.07477840  0.25551276  0.11484016     0.29800
C340        C  0.05440957  0.29533977  0.09191624    -0.21100
C341        C  0.08186342  0.34274516  0.08803935    -0.09100
C342        C  0.13062743  0.34941072  0.10874307     0.29800
F343        F  0.15903181  0.39407915  0.10570459    -0.19600
H344        H  0.18875010  0.31474875  0.14707538     0.18100
H345        H  0.01706389  0.28837756  0.07625970     0.18100
F346        F  0.04772476  0.20969148  0.11516339    -0.19600
C347        C  0.85475462  0.37890372  0.90451627    -0.21100
C348        C  0.85773886  0.43186395  0.92394197    -0.09100
C349        C  0.81601512  0.46279182  0.92008857     0.29800
C350        C  0.77203074  0.44046430  0.89710009    -0.21100
C351        C  0.76939767  0.38729090  0.87829977    -0.09100
C352        C  0.81120272  0.35682680  0.88186062     0.29800
F353        F  0.81045866  0.30588686  0.86202587    -0.19600
H354        H  0.88637120  0.35417929  0.90678805     0.18100
H355        H  0.74001460  0.46446555  0.89409632     0.18100
F356        F  0.81813538  0.51436809  0.93723840    -0.19600
C357        C  0.90584678  0.57381070  0.17194215    -0.21100
C358        C  0.92407904  0.60910505  0.13733578    -0.09100
C359        C  0.91420293  0.66202448  0.14979731     0.29800
C360        C  0.88720800  0.67936272  0.19625451    -0.21100
C361        C  0.87053771  0.64471898  0.23211118    -0.09100
C362        C  0.87972871  0.59148678  0.21941678     0.29800
F363        F  0.86617275  0.55715131  0.25402819    -0.19600
H364        H  0.91406839  0.53307443  0.16343341     0.18100
H365        H  0.88006213  0.72036563  0.20470436     0.18100
F366        F  0.93126456  0.69723044  0.11720209    -0.19600
C367        C  0.87156572  0.78553117  0.43987230    -0.21100
C368        C  0.86705087  0.78180114  0.38548729    -0.09100
C369        C  0.88746576  0.82286845  0.35841465     0.29800
C370        C  0.91174043  0.86644138  0.38542400    -0.21100
C371        C  0.91536323  0.87053585  0.43997326    -0.09100
C372        C  0.89528009  0.82930226  0.46693237     0.29800
F373        F  0.89830624  0.83131855  0.51963255    -0.19600
H374        H  0.85697342  0.75423450  0.46150352     0.18100
H375        H  0.92560681  0.89811273  0.36394366     0.18100
F376        F  0.88212939  0.82197962  0.30615689    -0.19600
C377        C  0.69010336  0.62100122  0.33494513    -0.21100
C378        C  0.72720254  0.64081220  0.37009323    -0.09100
C379        C  0.71809469  0.63501794  0.42371435     0.29800
C380        C  0.67289354  0.61017148  0.44140824    -0.21100
C381        C  0.63679125  0.58918225  0.40584511    -0.09100
C382        C  0.64586343  0.59488004  0.35233123     0.29800
F383        F  0.61185800  0.57503597  0.31665462    -0.19600
H384        H  0.69555631  0.62527373  0.29362881     0.18100
H385        H  0.66718938  0.60517781  0.48254142     0.18100
F386        F  0.75405533  0.65067624  0.45860736    -0.19600
C387        C  0.88865311  0.70932205  0.89291833    -0.21100
C388        C  0.91253364  0.75905165  0.89961997    -0.09100
C389        C  0.95727361  0.76684845  0.92683630     0.29800
C390        C  0.97820741  0.72555098  0.94657070    -0.21100
C391        C  0.95507014  0.67521448  0.93987535    -0.09100
C392        C  0.90970545  0.66750855  0.91279214     0.29800
F393        F  0.88553048  0.62003348  0.90573732    -0.19600
H394        H  0.85391325  0.70291117  0.87203055     0.18100
H395        H  0.01249764  0.73357571  0.96795006     0.18100
F396        F  0.98006877  0.81493450  0.93556638    -0.19600
C397        C  0.77307190  0.94031361  0.91776934    -0.21100
C398        C  0.77617019  0.88727044  0.89960926    -0.09100
C399        C  0.73138914  0.85587724  0.89552105     0.29800
C400        C  0.68418996  0.87762397  0.90863361    -0.21100
C401        C  0.68090570  0.93087852  0.92642699    -0.09100
C402        C  0.72599178  0.96207207  0.93115788     0.29800
F403        F  0.72476626  0.01364710  0.94798954    -0.19600
H404        H  0.80733755  0.96508163  0.92104166     0.18100
H405        H  0.65015413  0.85257835  0.90509545     0.18100
F406        F  0.73313165  0.80470261  0.87704789    -0.19600
C407        C  0.94573025  0.86934118  0.73623951    -0.21100
C408        C  0.93102513  0.89978799  0.78296519    -0.09100
C409        C  0.93684893  0.95433391  0.78607845     0.29800
C410        C  0.95451655  0.97779931  0.74201756    -0.21100
C411        C  0.96559548  0.94714199  0.69452221    -0.09100
C412        C  0.96226769  0.89280892  0.69208925     0.29800
F413        F  0.97178635  0.86257027  0.64598563    -0.19600
H414        H  0.94081001  0.82741835  0.73277579     0.18100
H415        H  0.95606411  0.01975949  0.74395431     0.18100
F416        F  0.92294067  0.98486360  0.83079619    -0.19600
loop_ 
_geom_bond_atom_site_label_1 
_geom_bond_atom_site_label_2 
_geom_bond_distance 
_geom_bond_site_symmetry_2 
_ccdc_geom_bond_type 
C1            C2   1.404       .  A
C1            C6   1.403       .  A
C1          C388   1.474       .  S
C2            C3   1.402       .  A
C2            H7   1.084       .  S
C3            C4   1.397       .  A
C3          C408   1.475       .  S
C4            C5   1.398       .  A
C4            H8   1.084       .  S
C5            C6   1.404       .  A
C5          C398   1.473       .  S
C6            H9   1.084       .  S
C10          C11   1.400       .  A
C10          C15   1.410       .  A
C10         C368   1.490       .  S
C11          C12   1.402       .  A
C11          H16   1.084       .  S
C12          C13   1.404       .  A
C12         C361   1.485       .  S
C13          C14   1.410       .  A
C13          H17   1.083       .  S
C14          C15   1.412       .  A
C14         C378   1.495       .  S
C15          H18   1.083       .  S
O19         Ni25   1.909       .  S
O19          C40   1.269       .  A
O20         Ni43   1.907       .  S
O20          C29   1.268       .  A
O21         Ni25   1.878   1_554  S
O21         Ni43   1.888   1_655  S
O21         Ni37   1.926   1_554  S
O21          H44   0.968       .  S
C22         C391   1.489       .  S
C22          O39   1.286       .  A
C22          O31   1.278   1_655  A
O23         Ni42   1.900       .  S
O23          C29   1.264       .  A
O24         Ni42   1.895   1_655  S
O24          C26   1.264       .  A
Ni25         O28   1.918   1_656  S
Ni25         O30   1.900   1_655  S
C26         C358   1.474       .  S
C26          O36   1.272       .  A
O27         Ni43   1.941       .  S
O27          C33   1.283       .  A
O28          C33   1.280       .  A
C29         C318   1.465       .  S
O30          C32   1.266       .  A
O31         Ni42   1.904   1_556  S
C32         C328   1.477       .  S
C32          O38   1.271       .  A
C33         C341   1.494       .  S
H34          O35   0.967   1_556  S
O35         Ni43   1.921       .  S
O35         Ni37   1.884   1_454  S
O35         Ni42   1.875       .  S
O36         Ni37   1.938   1_554  S
Ni37         O41   1.910       .  S
Ni37         O39   1.946       .  S
O38         Ni43   1.935   1_556  S
C40         C348   1.468       .  S
C40          O41   1.271       .  A
C45          C46   1.398       .  A
C45          C50   1.403       .  A
C45         C298   1.469       .  S
C46          C47   1.398       .  A
C46          H51   1.084       .  S
C47          C48   1.393       .  A
C47         C351   1.466       .  S
C48          C49   1.400       .  A
C48          H52   1.084       .  S
C49          C50   1.403       .  A
C49         C308   1.469       .  S
C50          H53   1.084       .  S
O54         Ni60   1.915       .  S
O54          C75   1.269       .  A
O55         Ni78   1.904   1_565  S
O55          C64   1.267       .  A
O56         Ni60   1.897       .  S
O56         Ni78   1.898   1_554  S
O56         Ni72   1.911   1_545  S
O56          H79   0.965   1_554  S
C57         C261   1.479       .  S
C57          O74   1.281       .  A
C57          O66   1.276       .  A
O58         Ni77   1.915       .  S
O58          C64   1.268       .  A
O59         Ni77   1.909       .  S
O59          C61   1.269       .  A
Ni60         O63   1.908   1_554  S
Ni60         O65   1.910       .  S
C61         C278   1.478       .  S
C61          O71   1.271       .  A
O62         Ni78   1.924       .  S
O62          C68   1.280       .  A
O63          C68   1.276       .  A
C64         C401   1.476       .  S
O65          C67   1.268       .  A
O66         Ni77   1.907   1_554  S
C67         C271   1.477       .  S
C67          O73   1.268       .  A
C68         C301   1.475       .  S
H69          O70   0.967       .  S
O70         Ni78   1.913   1_564  S
O70         Ni72   1.903       .  S
O70         Ni77   1.899   1_554  S
O71         Ni72   1.932   1_556  S
Ni72         O76   1.916   1_565  S
Ni72         O74   1.931       .  S
O73         Ni78   1.927   1_554  S
C75         C291   1.482       .  S
C75          O76   1.271       .  A
C80          C81   1.407       .  A
C80          C85   1.408       .  A
C80         C338   1.485       .  S
C81          C82   1.408       .  A
C81          H86   1.084       .  S
C82          C83   1.401       .  A
C82         C288   1.481       .  S
C83          C84   1.399       .  A
C83          H87   1.084       .  S
C84          C85   1.402       .  A
C84         C248   1.476       .  S
C85          H88   1.084       .  S
C89          C90   1.407       .  A
C89          C94   1.415       .  A
C89         C228   1.486       .  S
C90          C91   1.395       .  A
C90          H95   1.084       .  S
C91          C92   1.396       .  A
C91         C241   1.472       .  S
C92          C93   1.401       .  A
C92          H96   1.084       .  S
C93          C94   1.412       .  A
C93         C281   1.490       .  S
C94          H97   1.083       .  S
O98        Ni104   1.923       .  S
O98         C119   1.271       .  A
O99        Ni122   1.902       .  S
O99         C108   1.267   1_455  A
O100       Ni104   1.891   1_565  S
O100       Ni122   1.895       .  S
O100       Ni116   1.913   1_465  S
O100        H123   0.969       .  S
C101        C221   1.494       .  S
C101        O118   1.277       .  A
C101        O110   1.278       .  A
O102       Ni121   1.924       .  S
O102        C108   1.271       .  A
O103       Ni121   1.894       .  S
O103        C105   1.266       .  A
Ni104       O107   1.914   1_545  S
Ni104       O109   1.903       .  S
C105        C371   1.483       .  S
C105        O115   1.278       .  A
O106       Ni122   1.946       .  S
O106        C112   1.283       .  A
O107        C112   1.277       .  A
C108        C411   1.459       .  S
O109        C111   1.267       .  A
O110       Ni121   1.931   1_545  S
C111        C208   1.479       .  S
C111        O117   1.274       .  A
C112        C231   1.496       .  S
H113        O114   0.968       .  S
O114       Ni122   1.922   1_645  S
O114       Ni116   1.905       .  S
O114       Ni121   1.897   1_545  S
O115       Ni116   1.946   1_565  S
Ni116       O120   1.914   1_655  S
Ni116       O118   1.920       .  S
O117       Ni122   1.937   1_545  S
C119        C251   1.470       .  S
C119        O120   1.270       .  A
C124        C125   1.405       .  A
C124        C129   1.413       .  A
C124        C218   1.484       .  S
C125        C126   1.396       .  A
C125        H130   1.084       .  S
C126        C127   1.395       .  A
C126        C198   1.471       .  S
C127        C128   1.405       .  A
C127        H131   1.084       .  S
C128        C129   1.413       .  A
C128        C268   1.490       .  S
C129        H132   1.083       .  S
C133        C134   1.409       .  A
C133        C138   1.402       .  A
C133        C211   1.493       .  S
C134        C135   1.407       .  A
C134        H139   1.082       .  S
C135        C136   1.410       .  A
C135        C188   1.491       .  S
C136        C137   1.406       .  A
C136        H140   1.083       .  S
C137        C138   1.406       .  A
C137        C331   1.491       .  S
C138        H141   1.083       .  S
C142        C143   1.408       .  A
C142        C147   1.399       .  A
C142        C258   1.480       .  S
C143        C144   1.407       .  A
C143        H148   1.083       .  S
C144        C145   1.398       .  A
C144        C178   1.472       .  S
C145        C146   1.395       .  A
C145        H149   1.085       .  S
C146        C147   1.397       .  A
C146        C321   1.464       .  S
C147        H150   1.084       .  S
O151       Ni157   1.914       .  S
O151        C172   1.271       .  A
O152       Ni175   1.904       .  S
O152        C161   1.268       .  A
O153       Ni157   1.881       .  S
O153       Ni175   1.889       .  S
O153       Ni169   1.911       .  S
O153        H176   0.966       .  S
C154        C181   1.485       .  S
C154        O171   1.281       .  A
C154        O163   1.278       .  A
O155       Ni174   1.927       .  S
O155        C161   1.272       .  A
O156       Ni174   1.900       .  S
O156        C158   1.267       .  A
Ni157       O160   1.907       .  S
Ni157       O162   1.907       .  S
C158        C381   1.482       .  S
C158        O168   1.277       .  A
O159       Ni175   1.924       .  S
O159        C165   1.279       .  A
O160        C165   1.278       .  A
C161        C201   1.464       .  S
O162        C164   1.267       .  A
O163       Ni174   1.914       .  S
C164        C191   1.479       .  S
C164        O170   1.273       .  A
C165        C311   1.478       .  S
H166        O167   0.966       .  S
O167       Ni175   1.905       .  S
O167       Ni169   1.894       .  S
O167       Ni174   1.882       .  S
O168       Ni169   1.946       .  S
Ni169       O173   1.914       .  S
Ni169       O171   1.926       .  S
O170       Ni175   1.938       .  S
C172        C238   1.479       .  S
C172        O173   1.272       .  A
C177        C178   1.399       .  A
C177        C182   1.391       .  A
C177        H184   1.084       .  S
C178        C179   1.403       .  A
C179        C180   1.401       .  A
C179        F186   1.357       .  S
C180        C181   1.409       .  A
C180        H185   1.083       .  S
C181        C182   1.413       .  A
C182        F183   1.358       .  S
C187        C188   1.405       .  A
C187        C192   1.398       .  A
C187        H194   1.083       .  S
C188        C189   1.412       .  A
C189        C190   1.404       .  A
C189        F196   1.357       .  S
C190        C191   1.403       .  A
C190        H195   1.083       .  S
C191        C192   1.407       .  A
C192        F193   1.358       .  S
C197        C198   1.401       .  A
C197        C202   1.395       .  A
C197        H204   1.084       .  S
C198        C199   1.406       .  A
C199        C200   1.398       .  A
C199        F206   1.357       .  S
C200        C201   1.400       .  A
C200        H205   1.083       .  S
C201        C202   1.405       .  A
C202        F203   1.358       .  S
C207        C208   1.405       .  A
C207        C212   1.395       .  A
C207        H214   1.084       .  S
C208        C209   1.404       .  A
C209        C210   1.403       .  A
C209        F216   1.357       .  S
C210        C211   1.411       .  A
C210        H215   1.083       .  S
C211        C212   1.408       .  A
C212        F213   1.357       .  S
C217        C218   1.403       .  A
C217        C222   1.397       .  A
C217        H224   1.084       .  S
C218        C219   1.405       .  A
C219        C220   1.405       .  A
C219        F226   1.357       .  S
C220        C221   1.411       .  A
C220        H225   1.083       .  S
C221        C222   1.413       .  A
C222        F223   1.357       .  S
C227        C228   1.401       .  A
C227        C232   1.394       .  A
C227        H234   1.084       .  S
C228        C229   1.407       .  A
C229        C230   1.408       .  A
C229        F236   1.357       .  S
C230        C231   1.410       .  A
C230        H235   1.083       .  S
C231        C232   1.415       .  A
C232        F233   1.357       .  S
C237        C238   1.407       .  A
C237        C242   1.386       .  A
C237        H244   1.083       .  S
C238        C239   1.409       .  A
C239        C240   1.404       .  A
C239        F246   1.357       .  S
C240        C241   1.404       .  A
C240        H245   1.083       .  S
C241        C242   1.401       .  A
C242        F243   1.358       .  S
C247        C248   1.407       .  A
C247        C252   1.402       .  A
C247        H254   1.083       .  S
C248        C249   1.402       .  A
C249        C250   1.394       .  A
C249        F256   1.358       .  S
C250        C251   1.404       .  A
C250        H255   1.084       .  S
C251        C252   1.404       .  A
C252        F253   1.357   1_545  S
C257        C258   1.408       .  A
C257        C262   1.401       .  A
C257        H264   1.083       .  S
C258        C259   1.402       .  A
C259        C260   1.393       .  A
C259        F266   1.358       .  S
C260        C261   1.408       .  A
C260        H265   1.083       .  S
C261        C262   1.406       .  A
C262        F263   1.357       .  S
C267        C268   1.408       .  A
C267        C272   1.395       .  A
C267        H274   1.083       .  S
C268        C269   1.409       .  A
C269        C270   1.406       .  A
C269        F276   1.357       .  S
C270        C271   1.406       .  A
C270        H275   1.083       .  S
C271        C272   1.402       .  A
C272        F273   1.358       .  S
C277        C278   1.400       .  A
C277        C282   1.395       .  A
C277        H284   1.084       .  S
C278        C279   1.409       .  A
C279        C280   1.406       .  A
C279        F286   1.357   1_565  S
C280        C281   1.406       .  A
C280        H285   1.083       .  S
C281        C282   1.411       .  A
C282        F283   1.358       .  S
C287        C288   1.401       .  A
C287        C292   1.397       .  A
C287        H294   1.083       .  S
C288        C289   1.408       .  A
C289        C290   1.399       .  A
C289        F296   1.357       .  S
C290        C291   1.404       .  A
C290        H295   1.083       .  S
C291        C292   1.412       .  A
C292        F293   1.358       .  S
C297        C298   1.397       .  A
C297        C302   1.391       .  A
C297        H304   1.084       .  S
C298        C299   1.406       .  A
C299        C300   1.398       .  A
C299        F306   1.358       .  S
C300        C301   1.404       .  A
C300        H305   1.083       .  S
C301        C302   1.411       .  A
C302        F303   1.358       .  S
C307        C308   1.402       .  A
C307        C312   1.398       .  A
C307        H314   1.083       .  S
C308        C309   1.402       .  A
C309        C310   1.387       .  A
C309        F316   1.358       .  S
C310        C311   1.406       .  A
C310        H315   1.083       .  S
C311        C312   1.411       .  A
C312        F313   1.357       .  S
C317        C318   1.403       .  A
C317        C322   1.396       .  A
C317        H324   1.083       .  S
C318        C319   1.410       .  A
C319        C320   1.385       .  A
C319        F326   1.359       .  S
C320        C321   1.397       .  A
C320        H325   1.084       .  S
C321        C322   1.406       .  A
C322        F323   1.357       .  S
C327        C328   1.405       .  A
C327        C332   1.406       .  A
C327        H334   1.083       .  S
C328        C329   1.404       .  A
C329        C330   1.392       .  A
C329        F336   1.358       .  S
C330        C331   1.405       .  A
C330        H335   1.083       .  S
C331        C332   1.412       .  A
C332        F333   1.357       .  S
C337        C338   1.407       .  A
C337        C342   1.407       .  A
C337        H344   1.083       .  S
C338        C339   1.403       .  A
C339        C340   1.394       .  A
C339        F346   1.358       .  S
C340        C341   1.408       .  A
C340        H345   1.083       .  S
C341        C342   1.413       .  A
C342        F343   1.357       .  S
C347        C348   1.405       .  A
C347        C352   1.384       .  A
C347        H354   1.083       .  S
C348        C349   1.406       .  A
C349        C350   1.399       .  A
C349        F356   1.358       .  S
C350        C351   1.406       .  A
C350        H355   1.083       .  S
C351        C352   1.399       .  A
C352        F353   1.358       .  S
C357        C358   1.404       .  A
C357        C362   1.404       .  A
C357        H364   1.083       .  S
C358        C359   1.405       .  A
C359        C360   1.392       .  A
C359        F366   1.358       .  S
C360        C361   1.404       .  A
C360        H365   1.083       .  S
C361        C362   1.410       .  A
C362        F363   1.357       .  S
C367        C368   1.403       .  A
C367        C372   1.399       .  A
C367        H374   1.083       .  S
C368        C369   1.412       .  A
C369        C370   1.401       .  A
C369        F376   1.358       .  S
C370        C371   1.403       .  A
C370        H375   1.083       .  S
C371        C372   1.411       .  A
C372        F373   1.358       .  S
C377        C378   1.406       .  A
C377        C382   1.398       .  A
C377        H384   1.083       .  S
C378        C379   1.412       .  A
C379        C380   1.405       .  A
C379        F386   1.357       .  S
C380        C381   1.403       .  A
C380        H385   1.083       .  S
C381        C382   1.408       .  A
C382        F383   1.359       .  S
C387        C388   1.405       .  A
C387        C392   1.405       .  A
C387        H394   1.083       .  S
C388        C389   1.399       .  A
C389        C390   1.390       .  A
C389        F396   1.358       .  S
C390        C391   1.411       .  A
C390        H395   1.083   1_655  S
C391        C392   1.411       .  A
C392        F393   1.357       .  S
C397        C398   1.404       .  A
C397        C402   1.394       .  A
C397        H404   1.084       .  S
C398        C399   1.402       .  A
C399        C400   1.396       .  A
C399        F406   1.358       .  S
C400        C401   1.408       .  A
C400        H405   1.083       .  S
C401        C402   1.407       .  A
C402        F403   1.358   1_565  S
C407        C408   1.402       .  A
C407        C412   1.392       .  A
C407        H414   1.083       .  S
C408        C409   1.410       .  A
C409        C410   1.398       .  A
C409        F416   1.358       .  S
C410        C411   1.399       .  A
C410        H415   1.083   1_565  S
C411        C412   1.403       .  A
C412        F413   1.358       .  S
