geometry optimzed in LAMMPS
_audit_creation_date              2020-11-30 
_audit_creation_method            'lammps2cif' 
_symmetry_space_group_name_H-M    'P1' 
_symmetry_Int_Tables_number       1 
_symmetry_cell_setting            triclinic 
loop_ 
_symmetry_equiv_pos_as_xyz 
  x,y,z 
_cell_length_a                    30.224872322175486 
_cell_length_b                    30.076790912897504 
_cell_length_c                    30.38529065336341 
_cell_angle_alpha                 97.84396526615086 
_cell_angle_beta                  87.71721342059607 
_cell_angle_gamma                 84.69395391269128 
loop_ 
_atom_site_label 
_atom_site_type_symbol 
_atom_site_fract_x 
_atom_site_fract_y 
_atom_site_fract_z 
_atom_site_charge 
Zn1        Zn  0.05929711  0.95549342  0.46474718     1.49720
Zn2        Zn  0.48772344  0.98123552  0.05249980     1.49360
Zn3        Zn  0.46776383  0.45481174  0.46354613     1.49110
Zn4        Zn  0.03152351  0.38883133  0.02357403     1.49480
O5          O  0.01478739  0.94518981  0.99961481    -1.84180
O6          O  0.08443175  0.00502413  0.50944429    -0.74810
O7          O  0.42860671  0.01656907  0.05068015    -0.74630
O8          O  0.47673454  0.45570582  0.39845691    -0.74150
O9          O  0.53414635  0.02244522  0.06686640    -0.74830
O10         O  0.04147128  0.97957633  0.41182734    -0.74420
O11         O  0.45715117  0.51988428  0.48551392    -0.75010
O12         O  0.97585827  0.36866487  0.00822107    -0.74400
O13         O  0.47514046  0.93157884  0.08492985    -0.75160
O14         O  0.42460913  0.41081756  0.47596814    -0.74550
O15         O  0.04044131  0.40152234  0.08984480    -0.75010
O16         O  0.08872672  0.35256033  0.99441429    -0.74920
O17         O  0.06859394  0.89002182  0.44283665    -0.74710
C18         C  0.56233403  0.03390049  0.53964279     0.77080
C19         C  0.42442858  0.02841164  0.51257143     0.77570
C20         C  0.50740462  0.97897551  0.38911570     0.76530
C21         C  0.93781295  0.37503608  0.99210898     0.76910
C22         C  0.00955851  0.43132401  0.10494648     0.78040
C23         C  0.09957955  0.37336396  0.96294528     0.77090
C24         C  0.51776808  0.55337698  0.24068205     0.00510
C25         C  0.50660565  0.09637839  0.26849789     0.00510
C26         C  0.23282932  0.49384345  0.98505599     0.00510
C27         C  0.25681793  0.50681502  0.44688477     0.00510
C28         C  0.47618090  0.20269844  0.52687507     0.00510
C29         C  0.00783907  0.23384951  0.51857711     0.00510
C30         C  0.02342854  0.34474878  0.26429517     0.00510
C31         C  0.49333391  0.31047683  0.26870475     0.00510
Zn32       Zn  0.30731541  0.22628398  0.26519890     1.49720
Zn33       Zn  0.23088284  0.31141745  0.27939616     1.49360
Zn34       Zn  0.21808145  0.22019968  0.21226551     1.49110
Zn35       Zn  0.20487464  0.22550195  0.31317766     1.49480
O36         O  0.24010576  0.24541758  0.26870539    -1.84180
O37         O  0.33629774  0.28069575  0.26570340    -0.74810
O38         O  0.18483665  0.32390777  0.23902025    -0.74630
O39         O  0.26307860  0.17061328  0.21333680    -0.74150
O40         O  0.28490459  0.33800487  0.26149155    -0.74830
O41         O  0.32886526  0.18950226  0.20474283    -0.74420
O42         O  0.21701484  0.27794864  0.18097283    -0.75010
O43         O  0.16777889  0.18337628  0.27760927    -0.74400
O44         O  0.21773149  0.33588263  0.34443963    -0.75160
O45         O  0.16507312  0.18492503  0.20721965    -0.74550
O46         O  0.17271147  0.28471893  0.33678400    -0.75010
O47         O  0.25801476  0.20428778  0.34536597    -0.74920
O48         O  0.32518057  0.19556888  0.31707487    -0.74710
C49         C  0.32492401  0.32101244  0.25974259     0.77080
C50         C  0.20127420  0.31751983  0.19934468     0.77570
C51         C  0.29460088  0.17517242  0.18776360     0.76530
C52         C  0.14889220  0.19879620  0.24577219     0.76910
C53         C  0.19627914  0.30815823  0.36176627     0.78040
C54         C  0.28928568  0.17867011  0.32357555     0.77090
C55         C  0.22310786  0.21503002  0.02946318     0.00510
C56         C  0.26314077  0.22025603  0.50179837     0.00510
C57         C  0.24484227  0.49247321  0.19086523     0.00510
C58         C  0.25172381  0.01380137  0.23560591     0.00510
C59         C  0.23584599  0.12542926  0.29684921    -0.20360
C60         C  0.27901339  0.13826596  0.29387705    -0.06930
C61         C  0.31095557  0.11184142  0.26325930     0.13940
C62         C  0.29745878  0.07601149  0.23374071    -0.20410
C63         C  0.25472229  0.06242165  0.23912557    -0.06930
C64         C  0.22260115  0.08951073  0.26827368     0.13930
C65         C  0.17602793  0.07642221  0.27473394    -0.23760
H66         H  0.21256923  0.14219952  0.32319686     0.15220
H67         H  0.32232632  0.05352854  0.21283162     0.15250
C68         C  0.35990983  0.11577243  0.26696461    -0.23710
H69         H  0.15158912  0.10352927  0.26697874     0.05460
H70         H  0.16984967  0.07050973  0.30964363     0.08690
H71         H  0.17023143  0.04542306  0.25249525     0.08690
H72         H  0.36789161  0.11674194  0.30237490     0.08670
H73         H  0.37013153  0.14645976  0.25475245     0.08670
H74         H  0.37974240  0.08609502  0.24813885     0.05450
C75         C  0.25551488  0.36666958  0.17641310    -0.20360
C76         C  0.21069430  0.35836826  0.18053822    -0.06930
C77         C  0.17771878  0.39506461  0.18358978     0.13940
C78         C  0.19003921  0.43835557  0.18373374    -0.20410
C79         C  0.23439872  0.44636010  0.18601548    -0.06930
C80         C  0.26789672  0.41079870  0.18061248     0.13930
C81         C  0.31610106  0.41983118  0.18246435    -0.23760
H82         H  0.28029744  0.33960129  0.17701234     0.15220
H83         H  0.16488810  0.46645718  0.18713284     0.15250
C84         C  0.12977425  0.38928108  0.19065635    -0.23710
H85         H  0.33418337  0.40618123  0.15037421     0.05460
H86         H  0.33062627  0.40564485  0.21034898     0.08690
H87         H  0.32162294  0.45590960  0.18936953     0.08690
H88         H  0.12420720  0.37613871  0.22226852     0.08670
H89         H  0.12076517  0.36620160  0.16189524     0.08670
H90         H  0.10802969  0.42129279  0.19323936     0.05450
C91         C  0.25979494  0.23728973  0.09659174    -0.20360
C92         C  0.23421860  0.20680707  0.07349495    -0.06930
C93         C  0.22720660  0.16621144  0.08879075     0.13940
C94         C  0.25156308  0.15389937  0.12399927    -0.20410
C95         C  0.28178119  0.18221718  0.14396553    -0.06930
C96         C  0.28522632  0.22445326  0.13044649     0.13930
C97         C  0.31623020  0.25581394  0.15032442    -0.23760
H98         H  0.26352891  0.26932526  0.08483988     0.15220
H99         H  0.24644670  0.12277688  0.13679161     0.15250
C100        C  0.19345941  0.13712214  0.06889469    -0.23710
H101        H  0.31732403  0.28373221  0.13048038     0.05460
H102        H  0.35001817  0.23846208  0.14938068     0.08690
H103        H  0.30509442  0.26843144  0.18519648     0.08690
H104        H  0.20292964  0.12423269  0.03347524     0.08670
H105        H  0.16014375  0.15642344  0.07201223     0.08670
H106        H  0.19040087  0.10882146  0.08743911     0.05450
C107        C  0.19781694  0.24841155  0.40892359    -0.20360
C108        C  0.20999511  0.29145668  0.40292461    -0.06930
C109        C  0.24152417  0.31120324  0.43076588     0.13940
C110        C  0.25671110  0.28854481  0.46537768    -0.20410
C111        C  0.24945400  0.24319092  0.46523301    -0.06930
C112        C  0.22308806  0.22185384  0.43417440     0.13930
C113        C  0.22687574  0.17085425  0.42364597    -0.23760
H114        H  0.17477505  0.23193247  0.38791434     0.15220
H115        H  0.27769242  0.30435005  0.48978840     0.15250
C116        C  0.26184842  0.35341664  0.42264697    -0.23710
H117        H  0.19954659  0.15895704  0.40315632     0.05460
H118        H  0.22850067  0.15388277  0.45373361     0.08690
H119        H  0.25874808  0.15916627  0.40508175     0.08690
H120        H  0.23559016  0.38056316  0.41883294     0.08670
H121        H  0.28373297  0.34636911  0.39178683     0.08670
H122        H  0.28260204  0.36562540  0.45028685     0.05450
C123        C  0.08144129  0.30503353  0.29916755    -0.20360
C124        C  0.06821389  0.32323072  0.26113626    -0.06930
C125        C  0.08463584  0.30277576  0.21857191     0.13940
C126        C  0.11567538  0.26523716  0.21540104    -0.20410
C127        C  0.12297778  0.24279683  0.25263724    -0.06930
C128        C  0.10162914  0.26096684  0.29402550     0.13930
C129        C  0.09363351  0.23236933  0.33015438    -0.23760
H130        H  0.06535695  0.31953487  0.33113933     0.15220
H131        H  0.12841519  0.24952342  0.18269873     0.15250
C132        C  0.06080515  0.31231609  0.17734621    -0.23710
H133        H  0.07512558  0.25226209  0.35951243     0.05460
H134        H  0.12468410  0.21719119  0.34175409     0.08690
H135        H  0.07373133  0.20483784  0.31708940     0.08690
H136        H  0.02794385  0.29885479  0.17716979     0.08670
H137        H  0.07976682  0.29582503  0.14689329     0.08670
H138        H  0.05415927  0.34895683  0.17626850     0.05450
C139        C  0.37783017  0.36773985  0.28964704    -0.20360
C140        C  0.36069187  0.34708232  0.25069701    -0.06930
C141        C  0.39050182  0.32597604  0.21562335     0.13940
C142        C  0.43157875  0.30936080  0.22565005    -0.20410
C143        C  0.44805925  0.32582107  0.26561289    -0.06930
C144        C  0.42262631  0.35765937  0.29745900     0.13930
C145        C  0.44124803  0.37808155  0.33992351    -0.23760
H146        H  0.35532366  0.38579199  0.31615592     0.15220
H147        H  0.45310273  0.28858105  0.19977210     0.15250
C148        C  0.38369925  0.32631366  0.16742992    -0.23710
H149        H  0.41585331  0.40139309  0.36085647     0.05460
H150        H  0.46936160  0.39716032  0.33236674     0.08690
H151        H  0.45353584  0.35219729  0.35994449     0.08690
H152        H  0.34961270  0.33735292  0.16185051     0.08670
H153        H  0.39394190  0.29270711  0.14820846     0.08670
H154        H  0.40504496  0.35003819  0.15432957     0.05450
C155        C  0.40150083  0.21487981  0.48026473    -0.20360
C156        C  0.42176698  0.20564328  0.52005433    -0.06930
C157        C  0.38901894  0.19333106  0.05092682     0.13940
C158        C  0.34118916  0.19407428  0.04275743    -0.20410
C159        C  0.31892007  0.21212264  0.50685935    -0.06930
C160        C  0.35344812  0.21865715  0.47335549     0.13930
C161        C  0.34220366  0.22414182  0.42639882    -0.23760
H162        H  0.42409523  0.21750030  0.45254640     0.15220
H163        H  0.32167548  0.17723794  0.06392313     0.15250
C164        C  0.40477817  0.17853951  0.09352474    -0.23710
H165        H  0.37175771  0.21611781  0.40284987     0.05460
H166        H  0.32984366  0.25939573  0.42398477     0.08690
H167        H  0.31841492  0.20015564  0.41429498     0.08690
H168        H  0.42114519  0.20592947  0.11271558     0.08670
H169        H  0.42858823  0.14789912  0.08634179     0.08670
H170        H  0.37704744  0.16972492  0.11461046     0.05450
C171        C  0.08753647  0.25710504  0.05005701    -0.20360
C172        C  0.06330931  0.22848681  0.01986722    -0.06930
C173        C  0.09472245  0.19883667  0.48987021     0.13940
C174        C  0.14315397  0.19510930  0.49359458    -0.20410
C175        C  0.16804903  0.22345108  0.02285068    -0.06930
C176        C  0.13667238  0.25453816  0.05236385     0.13930
C177        C  0.15468708  0.28434016  0.08952126    -0.23760
H178        H  0.06746837  0.28218176  0.07317774     0.15220
H179        H  0.16068765  0.16640742  0.47374977     0.15250
C180        C  0.07957617  0.17093842  0.44996080    -0.23710
H181        H  0.13182531  0.31523550  0.09952317     0.05460
H182        H  0.18711541  0.29506465  0.07948927     0.08690
H183        H  0.15928009  0.26560174  0.11811726     0.08690
H184        H  0.04294955  0.17349778  0.44844563     0.08670
H185        H  0.09355504  0.13568392  0.45011363     0.08670
H186        H  0.09355147  0.18244708  0.41958939     0.05450
C187        C  0.23258423  0.47062934  0.36136231    -0.20360
C188        C  0.25376460  0.00302387  0.39133889    -0.06930
C189        C  0.27790954  0.03095945  0.36546673     0.13940
C190        C  0.28165859  0.02475799  0.31738739    -0.20410
C191        C  0.25521338  0.99918019  0.28713003    -0.06930
C192        C  0.23139498  0.46962359  0.31226285     0.13930
C193        C  0.20643489  0.43432834  0.28810964    -0.23760
H194        H  0.21695262  0.44488335  0.37583627     0.15220
H195        H  0.30637928  0.04271763  0.30337047     0.15250
C196        C  0.30063258  0.07021330  0.38730344    -0.23710
H197        H  0.18908457  0.41495980  0.31091756     0.05460
H198        H  0.22980976  0.41033154  0.26566057     0.08690
H199        H  0.18124306  0.45066511  0.26926155     0.08690
H200        H  0.28098785  0.08718206  0.41740018     0.08670
H201        H  0.30357671  0.09611132  0.36500323     0.08670
H202        H  0.33502045  0.05907579  0.39513147     0.05450
C203        C  0.20826474  0.02388318  0.07122105    -0.20360
C204        C  0.24208371  0.50263261  0.03881080    -0.06930
C205        C  0.27900654  0.48244895  0.06037848     0.13940
C206        C  0.28200686  0.48715198  0.10859866    -0.20410
C207        C  0.24796454  0.50800855  0.14122249    -0.06930
C208        C  0.21128200  0.02804667  0.11988500     0.13930
C209        C  0.17491764  0.05593421  0.14920482    -0.23760
H210        H  0.17775199  0.03735914  0.05826609     0.15220
H211        H  0.31146338  0.47088619  0.12038921     0.15250
C212        C  0.31384831  0.44950179  0.03417516    -0.23710
H213        H  0.14599558  0.06620962  0.13015811     0.05460
H214        H  0.18789577  0.08664890  0.16628713     0.08690
H215        H  0.16327503  0.53705573  0.17517471     0.08690
H216        H  0.34728753  0.96257536  0.03658706     0.08670
H217        H  0.30601228  0.44119950  0.99903497     0.08670
H218        H  0.31510891  0.41749387  0.04836593     0.05450
C219        C  0.48190832  0.47485381  0.24104897    -0.20360
C220        C  0.01673410  0.50209886  0.25398249    -0.06930
C221        C  0.05365738  0.47516287  0.26866386     0.13940
C222        C  0.05248982  0.42762722  0.27450491    -0.20410
C223        C  0.01791784  0.39967862  0.26051927    -0.06930
C224        C  0.48405730  0.42595023  0.23979371     0.13930
C225        C  0.45480784  0.40385369  0.20712649    -0.23760
H226        H  0.45350708  0.49145436  0.22715387     0.15220
H227        H  0.08114917  0.41153260  0.28846312     0.15250
C228        C  0.09667312  0.49524279  0.27589431    -0.23710
H229        H  0.45273836  0.42154117  0.17744834     0.05460
H230        H  0.42068959  0.40610367  0.22225761     0.08690
H231        H  0.46944186  0.36937713  0.19410254     0.08690
H232        H  0.11010157  0.48823705  0.30798012     0.08670
H233        H  0.09351630  0.53203193  0.27522201     0.08670
H234        H  0.12018204  0.48023611  0.24833009     0.05450
C235        C  0.47716268  0.18200116  0.29400764    -0.20360
C236        C  0.50436161  0.14996326  0.26278741    -0.06930
C237        C  0.02984647  0.17258273  0.23314411     0.13940
C238        C  0.02493928  0.22192384  0.23393839    -0.20410
C239        C  0.50040857  0.25444250  0.26770185    -0.06930
C240        C  0.47519349  0.23087093  0.29710631     0.13930
C241        C  0.44527219  0.25703659  0.33388044    -0.23760
H242        H  0.45629922  0.16852226  0.31769288     0.15220
H243        H  0.04022800  0.23414028  0.20626393     0.15250
C244        C  0.06409967  0.14524757  0.20102309    -0.23710
H245        H  0.46522888  0.28055487  0.35320585     0.05460
H246        H  0.41629044  0.27492847  0.32049495     0.08690
H247        H  0.43197217  0.23529621  0.35692032     0.08690
H248        H  0.08696213  0.12373976  0.21885208     0.08670
H249        H  0.08429190  0.16692055  0.18336047     0.08670
H250        H  0.04739904  0.12422398  0.17558574     0.05450
C251        C  0.93760736  0.30586108  0.95297667    -0.20360
C252        C  0.91369331  0.33529217  0.98711722    -0.06930
C253        C  0.41059996  0.31916207  0.02793803     0.13940
C254        C  0.44865990  0.29506720  0.04133934    -0.20410
C255        C  0.98267326  0.27511584  0.00885588    -0.06930
C256        C  0.97665370  0.28078690  0.96369128     0.13930
C257        C  0.01129372  0.26338050  0.92732029    -0.23760
H258        H  0.93384447  0.31262364  0.91928976     0.15220
H259        H  0.44894337  0.28653652  0.07488178     0.15250
C260        C  0.37078188  0.33353226  0.05886344    -0.23710
H261        H  0.01735891  0.29094224  0.90764890     0.05460
H262        H  0.00040064  0.23461222  0.40572149     0.08690
H263        H  0.04354551  0.25352061  0.94067998     0.08690
H264        H  0.34197557  0.34509864  0.53983297     0.08670
H265        H  0.37820826  0.36128832  0.08455978     0.08670
H266        H  0.36136913  0.30426716  0.07432599     0.05450
C267        C  0.49868357  0.12692641  0.50120663    -0.20360
C268        C  0.49706411  0.16026849  0.53663986    -0.06930
C269        C  0.02388737  0.15495806  0.07306355     0.13940
C270        C  0.05140710  0.11429665  0.07246674    -0.20410
C271        C  0.55539746  0.08186750  0.53435756    -0.06930
C272        C  0.53128918  0.09164418  0.49764115     0.13930
C273        C  0.53902703  0.06718201  0.45283398    -0.23760
H274        H  0.47909059  0.13194477  0.47264271     0.15220
H275        H  0.06866044  0.10744680  0.10167885     0.15250
C276        C  0.02212541  0.19096401  0.11278833    -0.23710
H277        H  0.54522877  0.09109910  0.42947075     0.05460
H278        H  0.50820732  0.05277860  0.44333606     0.08690
H279        H  0.56792777  0.04266643  0.45022956     0.08690
H280        H  0.00114975  0.22202858  0.10813579     0.08670
H281        H  0.05614461  0.20052410  0.61953690     0.08670
H282        H  0.00725783  0.17825039  0.14189905     0.05450
C283        C  0.30392604  0.05408209  0.99448587    -0.20360
C284        C  0.29993193  0.01867082  0.46010994    -0.06930
C285        C  0.33727876  0.49027544  0.44162851     0.13940
C286        C  0.37775943  0.50064044  0.45584164    -0.20410
C287        C  0.38155022  0.03163078  0.49386866    -0.06930
C288        C  0.34405101  0.05670724  0.01510814     0.13930
C289        C  0.34536769  0.08277350  0.06043852    -0.23760
H290        H  0.27448280  0.07529805  0.00868754     0.15220
H291        H  0.40601567  0.47964396  0.44032292     0.15250
C292        C  0.33593891  0.44673638  0.41018930    -0.23710
H293        H  0.31289543  0.10187225  0.07129579     0.05460
H294        H  0.37130025  0.10591517  0.05960110     0.08690
H295        H  0.35353956  0.05945118  0.08492793     0.08690
H296        H  0.34729075  0.45148753  0.37615735     0.08670
H297        H  0.30268424  0.43428255  0.40926323     0.08670
H298        H  0.35795279  0.41933211  0.42142812     0.05450
C299        C  0.14198410  0.93092364  0.43533448    -0.20360
C300        C  0.14072833  0.39586914  0.96228303    -0.06930
C301        C  0.17300466  0.39194945  0.99392072     0.13940
C302        C  0.20420740  0.42311228  0.99827423    -0.20410
C303        C  0.20037012  0.46134030  0.97621531    -0.06930
C304        C  0.16676760  0.96709804  0.44682025     0.13930
C305        C  0.15223709  0.01232392  0.43277188    -0.23760
H306        H  0.11840450  0.93366397  0.40972783     0.15220
H307        H  0.23058170  0.41826284  0.02062242     0.15250
C308        C  0.17425311  0.35673059  0.02433934    -0.23710
H309        H  0.14104911  0.03676247  0.46267953     0.05460
H310        H  0.12546220  0.00908362  0.40924894     0.08690
H311        H  0.17782569  0.02803515  0.41579851     0.08690
H312        H  0.17292387  0.32295885  0.00483070     0.08670
H313        H  0.14561963  0.36470245  0.04897020     0.08670
H314        H  0.20503907  0.35597083  0.04314702     0.05450
C315        C  0.03715748  0.04079012  0.35666191    -0.20360
C316        C  0.50151891  0.01385076  0.35948517    -0.06930
C317        C  0.46060824  0.52780946  0.34183660     0.13940
C318        C  0.45830339  0.56585907  0.31988806    -0.20410
C319        C  0.49600012  0.08836006  0.31374705    -0.06930
C320        C  0.03290610  0.08042909  0.33830877     0.13930
C321        C  0.06983306  0.11086754  0.34023347    -0.23760
H322        H  0.06881812  0.03155134  0.36969792     0.15220
H323        H  0.43067770  0.57182161  0.29964507     0.15250
C324        C  0.42127254  0.50069977  0.34028651    -0.23710
H325        H  0.09762685  0.09859802  0.35970758     0.05460
H326        H  0.05628337  0.14490981  0.35647690     0.08690
H327        H  0.08322264  0.11348768  0.30634904     0.08690
H328        H  0.40812200  0.49948925  0.37408921     0.08670
H329        H  0.43110800  0.46633839  0.32277283     0.08670
H330        H  0.39363502  0.51575832  0.32231711     0.05450
C331        C  0.06313593  0.52411510  0.17435759    -0.20360
C332        C  0.52441837  0.55071510  0.19255215    -0.06930
C333        C  0.48598123  0.04653340  0.16937439     0.13940
C334        C  0.48128755  0.00524043  0.14434764    -0.20410
C335        C  0.01739347  0.47266408  0.13409519    -0.06930
C336        C  0.06025486  0.48559259  0.14321416     0.13930
C337        C  0.10152517  0.46282800  0.11673559    -0.23760
H338        H  0.09419121  0.52957881  0.18924900     0.15220
H339        H  0.44875446  0.99931409  0.13239807     0.15250
C340        C  0.44798922  0.08288993  0.17405863    -0.23710
H341        H  0.13118743  0.48027729  0.12525018     0.05460
H342        H  0.09756311  0.46341669  0.08078130     0.08690
H343        H  0.10801550  0.42717167  0.12120281     0.08690
H344        H  0.45420611  0.11257980  0.19795503     0.08670
H345        H  0.41720497  0.06916914  0.18454943     0.08670
H346        H  0.44299332  0.09418381  0.14117561     0.05450
Zn347      Zn  0.05974035  0.95519983  0.96443427     1.49720
Zn348      Zn  0.48724882  0.98205047  0.55275843     1.49360
Zn349      Zn  0.46782942  0.45456177  0.96349671     1.49110
Zn350      Zn  0.03143378  0.38910634  0.52356564     1.49480
O351        O  0.01425795  0.94564072  0.49994103    -1.84180
O352        O  0.08463108  0.00480383  0.00926474    -0.74810
O353        O  0.42839935  0.01787327  0.55085736    -0.74630
O354        O  0.47672767  0.45552019  0.89839349    -0.74150
O355        O  0.53414449  0.02270269  0.56723129    -0.74830
O356        O  0.04187173  0.97933802  0.91157743    -0.74420
O357        O  0.45715094  0.51965249  0.98547739    -0.75010
O358        O  0.97581442  0.36896344  0.50813938    -0.74400
O359        O  0.47411622  0.93238216  0.58493600    -0.75160
O360        O  0.42472005  0.41054618  0.97593785    -0.74550
O361        O  0.04015789  0.40156973  0.58987176    -0.75010
O362        O  0.08868167  0.35282527  0.49450471    -0.74920
O363        O  0.06894329  0.88973588  0.94237979    -0.74710
C364        C  0.56248895  0.03366449  0.03944193     0.77080
C365        C  0.42464536  0.02772287  0.01262996     0.77570
C366        C  0.50779488  0.97887852  0.88895608     0.76530
C367        C  0.93775447  0.37529029  0.49206146     0.76910
C368        C  0.00936517  0.43148800  0.60492805     0.78040
C369        C  0.09956230  0.37358179  0.46301172     0.77090
C370        C  0.51784908  0.55341059  0.74080357     0.00510
C371        C  0.50672140  0.09645464  0.76859052     0.00510
C372        C  0.23285936  0.49401148  0.48508249     0.00510
C373        C  0.25678797  0.50661678  0.94684507     0.00510
C374        C  0.47615952  0.20235091  0.02681989     0.00510
C375        C  0.00780639  0.23348173  0.01845246     0.00510
C376        C  0.02348641  0.34471329  0.76434935     0.00510
C377        C  0.49339434  0.31047469  0.76863876     0.00510
Zn378      Zn  0.30749255  0.22579378  0.76486388     1.49720
Zn379      Zn  0.23116377  0.31109106  0.77940127     1.49360
Zn380      Zn  0.21804878  0.21992802  0.71224042     1.49110
Zn381      Zn  0.20509491  0.22533422  0.81320200     1.49480
O382        O  0.24029986  0.24507630  0.76859433    -1.84180
O383        O  0.33651279  0.28015646  0.76487029    -0.74810
O384        O  0.18510308  0.32372147  0.73911940    -0.74630
O385        O  0.26289740  0.17017713  0.71321237    -0.74150
O386        O  0.28511643  0.33766619  0.76144317    -0.74830
O387        O  0.32883835  0.18862466  0.70452417    -0.74420
O388        O  0.21704530  0.27772518  0.68098144    -0.75010
O389        O  0.16782091  0.18328537  0.77779982    -0.74400
O390        O  0.21813912  0.33555908  0.84446126    -0.75160
O391        O  0.16494609  0.18478615  0.70741283    -0.74550
O392        O  0.17295569  0.28456774  0.83673558    -0.75010
O393        O  0.25829209  0.20418757  0.84540707    -0.74920
O394        O  0.32541562  0.19549825  0.81697896    -0.74710
C395        C  0.32511770  0.32056672  0.75922599     0.77080
C396        C  0.20147540  0.31732871  0.69942074     0.77570
C397        C  0.29443754  0.17457990  0.68759287     0.76530
C398        C  0.14888033  0.19872069  0.74599459     0.76910
C399        C  0.19654874  0.30792380  0.86176089     0.78040
C400        C  0.28954491  0.17858050  0.82356910     0.77090
C401        C  0.22311315  0.21539557  0.52950411     0.00510
C402        C  0.26313656  0.21972188  0.00169405     0.00510
C403        C  0.24489886  0.49232731  0.69083680     0.00510
C404        C  0.25184089  0.01373939  0.73558401     0.00510
C405        C  0.23605951  0.12536569  0.79686123    -0.20360
C406        C  0.27923755  0.13817575  0.79388847    -0.06930
C407        C  0.31117392  0.11170855  0.76329937     0.13940
C408        C  0.29766214  0.07588994  0.73377633    -0.20410
C409        C  0.25490251  0.06234959  0.73913170    -0.06930
C410        C  0.22279574  0.08945558  0.76828215     0.13930
C411        C  0.17621405  0.07638495  0.77473288    -0.23760
H412        H  0.21279882  0.14213871  0.82322057     0.15220
H413        H  0.32252490  0.05337833  0.71288891     0.15250
C414        C  0.36013149  0.11552529  0.76710662    -0.23710
H415        H  0.15178646  0.10349424  0.76697144     0.05460
H416        H  0.17002915  0.07046448  0.80963867     0.08690
H417        H  0.17040273  0.04539822  0.75248134     0.08690
H418        H  0.36798989  0.11666812  0.80256395     0.08670
H419        H  0.37049347  0.14609295  0.75475152     0.08670
H420        H  0.37992393  0.08569435  0.74848613     0.05450
C421        C  0.25570384  0.36652250  0.67639732    -0.20360
C422        C  0.21090878  0.35817002  0.68059500    -0.06930
C423        C  0.17791227  0.39486537  0.68368239     0.13940
C424        C  0.19019775  0.43814955  0.68377475    -0.20410
C425        C  0.23453964  0.44618864  0.68596141    -0.06930
C426        C  0.26807455  0.41064304  0.68053308     0.13930
C427        C  0.31626739  0.41973174  0.68230064    -0.23760
H428        H  0.28071485  0.33930403  0.67695687     0.15220
H429        H  0.16501461  0.46625268  0.68727026     0.15250
C430        C  0.12998696  0.38910076  0.69088810    -0.23710
H431        H  0.33430644  0.40613220  0.65017419     0.05460
H432        H  0.33089407  0.40552591  0.71012829     0.08690
H433        H  0.32173728  0.45581674  0.68924097     0.08690
H434        H  0.12449270  0.37601666  0.72254464     0.08670
H435        H  0.12093514  0.36599348  0.66218124     0.08670
H436        H  0.10823511  0.42110927  0.69346410     0.05450
C437        C  0.25982642  0.23722008  0.59671447    -0.20360
C438        C  0.23418077  0.20690612  0.57347959    -0.06930
C439        C  0.22696014  0.16628877  0.58865814     0.13940
C440        C  0.25123371  0.15377537  0.62384063    -0.20410
C441        C  0.28159280  0.18187862  0.64387234    -0.06930
C442        C  0.28519401  0.22416603  0.63052449     0.13930
C443        C  0.31617728  0.25543883  0.65062680    -0.23760
H444        H  0.26364767  0.26931511  0.58512014     0.15220
H445        H  0.24598016  0.12263569  0.63653466     0.15250
C446        C  0.19309150  0.13737732  0.56869919    -0.23710
H447        H  0.31748946  0.28335406  0.63079746     0.05460
H448        H  0.34993818  0.23807590  0.64992492     0.08690
H449        H  0.30478725  0.26806144  0.68541649     0.08690
H450        H  0.20251848  0.12456791  0.53325518     0.08670
H451        H  0.15983391  0.15679845  0.57188483     0.08670
H452        H  0.18991389  0.10900159  0.58714452     0.05450
C453        C  0.19785234  0.24814501  0.90886422    -0.20360
C454        C  0.21015283  0.29116010  0.90292192    -0.06930
C455        C  0.24170496  0.31079577  0.93080282     0.13940
C456        C  0.25686997  0.28802090  0.96534008    -0.20410
C457        C  0.24949256  0.24268666  0.96513717    -0.06930
C458        C  0.22301539  0.22147871  0.93409793     0.13930
C459        C  0.22658259  0.17048794  0.92351443    -0.23760
H460        H  0.17477984  0.23176289  0.88782921     0.15220
H461        H  0.27790146  0.30373127  0.98975885     0.15250
C462        C  0.26205895  0.35303022  0.92281028    -0.23710
H463        H  0.25825096  0.15866758  0.90462989     0.05460
H464        H  0.19900587  0.15873943  0.90329785     0.08690
H465        H  0.22845304  0.15348097  0.95357082     0.08690
H466        H  0.23581876  0.38019624  0.91899381     0.08670
H467        H  0.28399850  0.34603296  0.89198697     0.08670
H468        H  0.28276018  0.36518948  0.95051333     0.05450
C469        C  0.08144753  0.30501803  0.79933787    -0.20360
C470        C  0.06827561  0.32320341  0.76128104    -0.06930
C471        C  0.08476832  0.30274884  0.71874017     0.13940
C472        C  0.11580024  0.26521155  0.71561657    -0.20410
C473        C  0.12303684  0.24276600  0.75286080    -0.06930
C474        C  0.10165900  0.26095776  0.79423026     0.13930
C475        C  0.09362180  0.23237374  0.83035341    -0.23760
H476        H  0.06530869  0.31951889  0.83128472     0.15220
H477        H  0.12858372  0.24950201  0.68292606     0.15250
C478        C  0.06100115  0.31226759  0.67746970    -0.23710
H479        H  0.07525787  0.25231862  0.85976302     0.05460
H480        H  0.12464455  0.21704834  0.84186037     0.08690
H481        H  0.07357786  0.20495014  0.81732297     0.08690
H482        H  0.02818572  0.29871700  0.67718597     0.08670
H483        H  0.08006336  0.29585907  0.64704560     0.08670
H484        H  0.05426947  0.34890717  0.67642204     0.05450
C485        C  0.37779723  0.36752306  0.78912367    -0.20360
C486        C  0.36081568  0.34670583  0.75016529    -0.06930
C487        C  0.39073264  0.32567209  0.71516171     0.13940
C488        C  0.43182216  0.30920142  0.72530373    -0.20410
C489        C  0.44814315  0.32574493  0.76533299    -0.06930
C490        C  0.42256726  0.35755983  0.79708537     0.13930
C491        C  0.44100446  0.37806368  0.83961890    -0.23760
H492        H  0.35519299  0.38557093  0.81555306     0.15220
H493        H  0.45344430  0.28845432  0.69949519     0.15250
C494        C  0.38400259  0.32591952  0.66694587    -0.23710
H495        H  0.41552669  0.40137856  0.86043137     0.05460
H496        H  0.46913280  0.39716022  0.83216114     0.08690
H497        H  0.45320385  0.35222799  0.85973310     0.08690
H498        H  0.34989894  0.33724665  0.66129985     0.08670
H499        H  0.39399745  0.29223654  0.64781182     0.08670
H500        H  0.40558248  0.34942492  0.65382802     0.05450
C501        C  0.40147888  0.21438431  0.98017551    -0.20360
C502        C  0.42174593  0.20526626  0.02000407    -0.06930
C503        C  0.38903138  0.19363413  0.55092071     0.13940
C504        C  0.34120371  0.19441609  0.54273680    -0.20410
C505        C  0.31890927  0.21161422  0.00679295    -0.06930
C506        C  0.35343103  0.21802118  0.97323654     0.13930
C507        C  0.34217516  0.22309953  0.92619542    -0.23760
H508        H  0.42406913  0.21699115  0.95244598     0.15220
H509        H  0.32169634  0.17747279  0.56380596     0.15250
C510        C  0.40478045  0.17869617  0.59345714    -0.23710
H511        H  0.37175350  0.21502865  0.90267528     0.05460
H512        H  0.32965855  0.25824647  0.92351002     0.08690
H513        H  0.31847579  0.19892807  0.91428993     0.08690
H514        H  0.42115942  0.20602360  0.61273193     0.08670
H515        H  0.42856452  0.14804586  0.58617816     0.08670
H516        H  0.37704840  0.16982084  0.61449676     0.05450
C517        C  0.08756530  0.25739897  0.55020119    -0.20360
C518        C  0.06333411  0.22883081  0.51997264    -0.06930
C519        C  0.09471722  0.19843098  0.98983948     0.13940
C520        C  0.14314135  0.19465497  0.99363709    -0.20410
C521        C  0.16806430  0.22384152  0.52287957    -0.06930
C522        C  0.13669896  0.25485417  0.55246770     0.13930
C523        C  0.15472314  0.28463301  0.58963509    -0.23760
H524        H  0.06750277  0.28243142  0.57337305     0.15220
H525        H  0.16067686  0.16586439  0.97392765     0.15250
C526        C  0.07961756  0.17056232  0.94989494    -0.23710
H527        H  0.13194182  0.31561155  0.59949956     0.05460
H528        H  0.18724653  0.29521314  0.57968498     0.08690
H529        H  0.15910599  0.26595272  0.61829684     0.08690
H530        H  0.04299289  0.17311837  0.94833989     0.08670
H531        H  0.09361181  0.13530798  0.95001615     0.08670
H532        H  0.09362882  0.18211305  0.91956253     0.05450
C533        C  0.23258045  0.47041609  0.86132707    -0.20360
C534        C  0.25394401  0.00288216  0.89131904    -0.06930
C535        C  0.27813355  0.03079061  0.86545316     0.13940
C536        C  0.28184627  0.02462322  0.81736626    -0.20410
C537        C  0.25535433  0.99909775  0.78710332    -0.06930
C538        C  0.23140109  0.46940869  0.81222663     0.13930
C539        C  0.20654175  0.43402917  0.78806766    -0.23760
H540        H  0.21698565  0.44464593  0.87580350     0.15220
H541        H  0.30659429  0.04254942  0.80335066     0.15250
C542        C  0.30095631  0.06996939  0.88731026    -0.23710
H543        H  0.18929695  0.41457410  0.81086950     0.05460
H544        H  0.22997433  0.41011327  0.76559805     0.08690
H545        H  0.18126157  0.45028890  0.76925875     0.08690
H546        H  0.28132191  0.08699777  0.91739209     0.08670
H547        H  0.30402770  0.09585108  0.86500896     0.08670
H548        H  0.33529990  0.05872844  0.89518718     0.05450
C549        C  0.20819717  0.02394725  0.57123033    -0.20360
C550        C  0.24210534  0.50275455  0.53884303    -0.06930
C551        C  0.27906090  0.48260040  0.56039136     0.13940
C552        C  0.28205246  0.48723554  0.60860656    -0.20410
C553        C  0.24796700  0.50795514  0.64123499    -0.06930
C554        C  0.21120824  0.02805668  0.61988710     0.13930
C555        C  0.17477372  0.05584291  0.64919334    -0.23760
H556        H  0.17766999  0.03739438  0.55828255     0.15220
H557        H  0.31153804  0.47101272  0.62038373     0.15250
C558        C  0.31395972  0.44973921  0.53416821    -0.23710
H559        H  0.14588297  0.06614106  0.63011711     0.05460
H560        H  0.18768898  0.08654463  0.66637891     0.08690
H561        H  0.16328262  0.53678577  0.67522449     0.08690
H562        H  0.34725667  0.96288012  0.53651025     0.08670
H563        H  0.30610904  0.44141754  0.49903507     0.08670
H564        H  0.31533424  0.41772241  0.54835155     0.05450
C565        C  0.48197863  0.47487299  0.74108131    -0.20360
C566        C  0.01680811  0.50206906  0.75408532    -0.06930
C567        C  0.05371587  0.47512090  0.76878428     0.13940
C568        C  0.05253730  0.42758188  0.77459398    -0.20410
C569        C  0.01798262  0.39963630  0.76055301    -0.06930
C570        C  0.48412292  0.42596252  0.73979680     0.13930
C571        C  0.45490853  0.40386213  0.70707552    -0.23760
H572        H  0.45359676  0.49148153  0.72716381     0.15220
H573        H  0.08117819  0.41148217  0.78857713     0.15250
C574        C  0.09673422  0.49518716  0.77606237    -0.23710
H575        H  0.45277569  0.42162629  0.67745244     0.05460
H576        H  0.42079396  0.40598723  0.72218084     0.08690
H577        H  0.46961576  0.36942903  0.69397526     0.08690
H578        H  0.11014657  0.48814466  0.80814419     0.08670
H579        H  0.09357651  0.53198140  0.77543150     0.08670
H580        H  0.12026351  0.48020802  0.74849801     0.05450
C581        C  0.47723444  0.18205132  0.79403740    -0.20360
C582        C  0.50446754  0.15001813  0.76285387    -0.06930
C583        C  0.02993683  0.17256855  0.73320080     0.13940
C584        C  0.02504397  0.22189877  0.73398510    -0.20410
C585        C  0.50048956  0.25446375  0.76770127    -0.06930
C586        C  0.47523058  0.23091304  0.79708688     0.13930
C587        C  0.44520761  0.25709225  0.83377049    -0.23760
H588        H  0.45635938  0.16857288  0.81771361     0.15220
H589        H  0.04036545  0.23410640  0.70632412     0.15250
C590        C  0.06415095  0.14522280  0.70104494    -0.23710
H591        H  0.46511274  0.28062737  0.85314237     0.05460
H592        H  0.41627410  0.27496238  0.82028715     0.08690
H593        H  0.43182270  0.23537123  0.85678639     0.08690
H594        H  0.08700474  0.12366554  0.71883455     0.08670
H595        H  0.08435229  0.16688699  0.68338064     0.08670
H596        H  0.04740296  0.12426029  0.67560186     0.05450
C597        C  0.93767592  0.30608878  0.45300983    -0.20360
C598        C  0.91367214  0.33551425  0.48709325    -0.06930
C599        C  0.41061041  0.31942159  0.52795117     0.13940
C600        C  0.44869078  0.29541780  0.54142797    -0.20410
C601        C  0.98274427  0.27550074  0.50897865    -0.06930
C602        C  0.97676376  0.28112783  0.46379417     0.13930
C603        C  0.01146050  0.26375864  0.42746369    -0.23760
H604        H  0.93389993  0.31276271  0.41930083     0.15220
H605        H  0.44888836  0.28679891  0.57494047     0.15250
C606        C  0.37037628  0.33300837  0.55849428    -0.23710
H607        H  0.01746238  0.29129525  0.40773787     0.05460
H608        H  0.00014134  0.23431083  0.90554078     0.08690
H609        H  0.04372608  0.25402917  0.44086540     0.08690
H610        H  0.34209479  0.34503439  0.04025800     0.08670
H611        H  0.37744492  0.36020163  0.58492663     0.08670
H612        H  0.36072636  0.30324860  0.57300323     0.05450
C613        C  0.49870179  0.12659694  0.00118261    -0.20360
C614        C  0.49706727  0.15993942  0.03660998    -0.06930
C615        C  0.02384335  0.15526357  0.57314228     0.13940
C616        C  0.05130230  0.11457349  0.57256161    -0.20410
C617        C  0.55558839  0.08165024  0.03423471    -0.06930
C618        C  0.53141283  0.09141150  0.99755651     0.13930
C619        C  0.53913668  0.06698272  0.95273807    -0.23760
H620        H  0.47905493  0.13157553  0.97264509     0.15220
H621        H  0.06854958  0.10771564  0.60177251     0.15250
C622        C  0.02209619  0.19124798  0.61288535    -0.23710
H623        H  0.54512818  0.09095446  0.92937506     0.05460
H624        H  0.50837413  0.05243337  0.94331842     0.08690
H625        H  0.56814948  0.04259593  0.95005934     0.08690
H626        H  0.00111816  0.22232006  0.60825788     0.08670
H627        H  0.05616876  0.20025290  0.11944307     0.08670
H628        H  0.00725105  0.17850975  0.64199515     0.05450
C629        C  0.30363367  0.05439518  0.49446960    -0.20360
C630        C  0.30014382  0.01838857  0.96011068    -0.06930
C631        C  0.33723292  0.48996516  0.94155520     0.13940
C632        C  0.37773412  0.50027346  0.95575034    -0.20410
C633        C  0.38178880  0.03108178  0.99392478    -0.06930
C634        C  0.34375279  0.05713351  0.51507691     0.13930
C635        C  0.34498634  0.08313379  0.56044375    -0.23760
H636        H  0.27414237  0.07552478  0.50868631     0.15220
H637        H  0.40597248  0.47920905  0.94027174     0.15250
C638        C  0.33582953  0.44642674  0.91013431    -0.23710
H639        H  0.31250210  0.10220994  0.57124552     0.05460
H640        H  0.37091617  0.10628415  0.55970438     0.08690
H641        H  0.35309221  0.05977261  0.58491376     0.08690
H642        H  0.34712412  0.45117669  0.87608294     0.08670
H643        H  0.30256137  0.43399939  0.90927424     0.08670
H644        H  0.35786006  0.41901145  0.92133907     0.05450
C645        C  0.14231422  0.93068855  0.93505198    -0.20360
C646        C  0.14071738  0.39607842  0.46234425    -0.06930
C647        C  0.17298647  0.39216850  0.49399018     0.13940
C648        C  0.20422157  0.42329627  0.49830016    -0.20410
C649        C  0.20039441  0.46151892  0.47623076    -0.06930
C650        C  0.16696629  0.96693479  0.94669118     0.13930
C651        C  0.15241362  0.01215932  0.93265297    -0.23760
H652        H  0.11883983  0.93338050  0.90934182     0.15220
H653        H  0.23060929  0.41843190  0.52063258     0.15250
C654        C  0.17418681  0.35700682  0.52446997    -0.23710
H655        H  0.14115944  0.03656863  0.96255942     0.05460
H656        H  0.12568344  0.00889671  0.90908328     0.08690
H657        H  0.17800879  0.02793280  0.91575655     0.08690
H658        H  0.17283883  0.32321738  0.50500621     0.08670
H659        H  0.14554066  0.36504392  0.54907753     0.08670
H660        H  0.20495684  0.35625293  0.54330232     0.05450
C661        C  0.03746154  0.04068255  0.85655684    -0.20360
C662        C  0.50185806  0.01383952  0.85943794    -0.06930
C663        C  0.46057173  0.52780893  0.84190671     0.13940
C664        C  0.45830386  0.56586486  0.81995900    -0.20410
C665        C  0.49625404  0.08845327  0.81386695    -0.06930
C666        C  0.03318566  0.08036225  0.83827554     0.13930
C667        C  0.07013602  0.11076482  0.84014038    -0.23760
H668        H  0.06914477  0.03140800  0.86952699     0.15220
H669        H  0.43069236  0.57185020  0.79969965     0.15250
C670        C  0.42121967  0.50072276  0.84033552    -0.23710
H671        H  0.09797532  0.09844487  0.85953118     0.05460
H672        H  0.05663277  0.14479542  0.85644544     0.08690
H673        H  0.08343462  0.11342632  0.80623424     0.08690
H674        H  0.40809503  0.49943881  0.87413386     0.08670
H675        H  0.43103164  0.46638953  0.82274685     0.08670
H676        H  0.39357277  0.51584089  0.82241946     0.05450
C677        C  0.06323413  0.52393102  0.67451933    -0.20360
C678        C  0.52456195  0.55075487  0.69268267    -0.06930
C679        C  0.48573905  0.04699152  0.66956279     0.13940
C680        C  0.48067659  0.00575202  0.64462275    -0.20410
C681        C  0.01731777  0.47270685  0.63419147    -0.06930
C682        C  0.06023746  0.48543445  0.64337950     0.13930
C683        C  0.10146903  0.46252123  0.61693129    -0.23760
H684        H  0.09429312  0.52924122  0.68946240     0.15220
H685        H  0.44806412  0.00008639  0.63273056     0.15250
C686        C  0.44811822  0.08373654  0.67408616    -0.23710
H687        H  0.13120198  0.47983826  0.62548364     0.05460
H688        H  0.09757850  0.46316146  0.58096760     0.08690
H689        H  0.10778754  0.42684539  0.62139910     0.08690
H690        H  0.45463371  0.11340493  0.69785162     0.08670
H691        H  0.41710783  0.07046950  0.68463213     0.08670
H692        H  0.44332741  0.09492494  0.64112917     0.05450
Zn693      Zn  0.05925440  0.45534240  0.46459035     1.49720
Zn694      Zn  0.48721214  0.48155635  0.05256284     1.49360
Zn695      Zn  0.46781911  0.95486663  0.46368228     1.49110
Zn696      Zn  0.03223415  0.88875177  0.02330455     1.49480
O697        O  0.01421075  0.44526672  0.99979064    -1.84180
O698        O  0.08444977  0.50484074  0.50930989    -0.74810
O699        O  0.42828821  0.51712347  0.05061125    -0.74630
O700        O  0.47674415  0.95566305  0.39854139    -0.74150
O701        O  0.53378692  0.52256265  0.06695063    -0.74830
O702        O  0.04152810  0.47937224  0.41160813    -0.74420
O703        O  0.45726458  0.01997531  0.48564552    -0.75010
O704        O  0.97643431  0.86873992  0.00812215    -0.74400
O705        O  0.47427849  0.43199159  0.08496250    -0.75160
O706        O  0.42467594  0.91087892  0.47609534    -0.74550
O707        O  0.04148644  0.90154086  0.08951775    -0.75010
O708        O  0.08928116  0.85236861  0.99388502    -0.74920
O709        O  0.06847173  0.38985570  0.44271238    -0.74710
C710        C  0.56242446  0.53375774  0.53952010     0.77080
C711        C  0.42437515  0.52834481  0.51250811     0.77570
C712        C  0.50746756  0.47890701  0.38896823     0.76530
C713        C  0.93833833  0.87513558  0.99210997     0.76910
C714        C  0.01046889  0.93112586  0.10478441     0.78040
C715        C  0.10008626  0.87334876  0.96253714     0.77090
C716        C  0.51787748  0.05334139  0.24071219     0.00510
C717        C  0.50661657  0.59640724  0.26849025     0.00510
C718        C  0.23318538  0.99397694  0.98495475     0.00510
C719        C  0.25699733  0.00693466  0.44677285     0.00510
C720        C  0.47613745  0.70251125  0.52663044     0.00510
C721        C  0.00781848  0.73360689  0.51830605     0.00510
C722        C  0.02358974  0.84469482  0.26425268     0.00510
C723        C  0.49349405  0.81043701  0.26857119     0.00510
Zn724      Zn  0.30760702  0.72601749  0.26489876     1.49720
Zn725      Zn  0.23122974  0.81124730  0.27916148     1.49360
Zn726      Zn  0.21832420  0.72006214  0.21201857     1.49110
Zn727      Zn  0.20514498  0.72549203  0.31297165     1.49480
O728        O  0.24041467  0.74525695  0.26844455    -1.84180
O729        O  0.33660799  0.78042368  0.26512313    -0.74810
O730        O  0.18516720  0.82376420  0.23883286    -0.74630
O731        O  0.26319052  0.67035156  0.21316832    -0.74150
O732        O  0.28520365  0.83780467  0.26118847    -0.74830
O733        O  0.32909135  0.68893855  0.20456603    -0.74420
O734        O  0.21733890  0.77784848  0.18076013    -0.75010
O735        O  0.16811670  0.68336494  0.27735008    -0.74400
O736        O  0.21815330  0.83572586  0.34421284    -0.75160
O737        O  0.16521621  0.68493430  0.20697899    -0.74550
O738        O  0.17296971  0.78472283  0.33649285    -0.75010
O739        O  0.25828263  0.70440832  0.34524627    -0.74920
O740        O  0.32543794  0.69550035  0.31690657    -0.74710
C741        C  0.32521629  0.82077266  0.25925963     0.77080
C742        C  0.20161160  0.81741563  0.19916276     0.77570
C743        C  0.29475894  0.67477373  0.18759073     0.76530
C744        C  0.14912804  0.69878483  0.24556946     0.76910
C745        C  0.19656039  0.80809298  0.36151806     0.78040
C746        C  0.28950727  0.67868889  0.32349274     0.77090
C747        C  0.22352103  0.71525079  0.02935353     0.00510
C748        C  0.26309786  0.71989375  0.50153571     0.00510
C749        C  0.24516419  0.99241644  0.19075411     0.00510
C750        C  0.25151910  0.51382006  0.23571183     0.00510
C751        C  0.23594800  0.62548753  0.29694782    -0.20360
C752        C  0.27914002  0.63824601  0.29389859    -0.06930
C753        C  0.31101996  0.61170829  0.26330253     0.13940
C754        C  0.29743599  0.57588991  0.23382930    -0.20410
C755        C  0.25465464  0.56241956  0.23923964    -0.06930
C756        C  0.22260906  0.58958158  0.26841516     0.13930
C757        C  0.17600691  0.57658926  0.27492970    -0.23760
H758        H  0.21270617  0.64234589  0.32328714     0.15220
H759        H  0.32225591  0.55333272  0.21293326     0.15250
C760        C  0.35998915  0.61546553  0.26704670    -0.23710
H761        H  0.15160685  0.60374628  0.26722049     0.05460
H762        H  0.16985856  0.57066180  0.30983876     0.08690
H763        H  0.17011870  0.54563026  0.25267460     0.08690
H764        H  0.36788309  0.61659833  0.30249409     0.08670
H765        H  0.37037505  0.64601356  0.25467646     0.08670
H766        H  0.37972879  0.58561875  0.24839945     0.05450
C767        C  0.25580771  0.86660245  0.17611930    -0.20360
C768        C  0.21101259  0.85829095  0.18038787    -0.06930
C769        C  0.17803408  0.89501785  0.18359593     0.13940
C770        C  0.19036062  0.93830755  0.18379665    -0.20410
C771        C  0.23472858  0.94629390  0.18590897    -0.06930
C772        C  0.26822327  0.91070811  0.18034872     0.13930
C773        C  0.31643085  0.91973181  0.18207858    -0.23760
H774        H  0.28079528  0.83932441  0.17652742     0.15220
H775        H  0.16519995  0.96643864  0.18739541     0.15250
C776        C  0.13008801  0.88925652  0.19074577    -0.23710
H777        H  0.33443024  0.90613555  0.14992817     0.05460
H778        H  0.33105478  0.90547288  0.20987320     0.08690
H779        H  0.32195503  0.95579917  0.18907263     0.08690
H780        H  0.12455459  0.87610877  0.22236350     0.08670
H781        H  0.12101787  0.86621037  0.16198937     0.08670
H782        H  0.10835111  0.92127930  0.19335615     0.05450
C783        C  0.26020675  0.73719120  0.09655123    -0.20360
C784        C  0.23459341  0.70682681  0.07334614    -0.06930
C785        C  0.22739619  0.66623281  0.08858203     0.13940
C786        C  0.25164909  0.65379717  0.12380926    -0.20410
C787        C  0.28197604  0.68195408  0.14381976    -0.06930
C788        C  0.28556922  0.72420672  0.13039240     0.13930
C789        C  0.31658844  0.75548479  0.15040182    -0.23760
H790        H  0.26401904  0.76926238  0.08490300     0.15220
H791        H  0.24638606  0.62268715  0.13656470     0.15250
C792        C  0.19356100  0.63727185  0.06864529    -0.23710
H793        H  0.31788174  0.78335798  0.13051828     0.05460
H794        H  0.35034464  0.73808860  0.14965637     0.08690
H795        H  0.30526039  0.76818674  0.18519763     0.08690
H796        H  0.20299140  0.62444220  0.03320691     0.08670
H797        H  0.16028657  0.65665785  0.07182173     0.08670
H798        H  0.19042871  0.60891439  0.08711837     0.05450
C799        C  0.19778678  0.74837815  0.40869510    -0.20360
C800        C  0.21015097  0.79135472  0.40270377    -0.06930
C801        C  0.24174385  0.81095834  0.43055932     0.13940
C802        C  0.25688325  0.78819412  0.46512202    -0.20410
C803        C  0.24942073  0.74288740  0.46498519    -0.06930
C804        C  0.22290181  0.72170702  0.43396380     0.13930
C805        C  0.22642413  0.67072216  0.42338234    -0.23760
H806        H  0.17468681  0.73201979  0.38767717     0.15220
H807        H  0.27795439  0.80388673  0.48951110     0.15250
C808        C  0.26215676  0.85315046  0.42251935    -0.23710
H809        H  0.19877599  0.65899424  0.40326024     0.05460
H810        H  0.22839368  0.65371248  0.45342994     0.08690
H811        H  0.25804328  0.65888273  0.40441745     0.08690
H812        H  0.23594444  0.88035224  0.41872447     0.08670
H813        H  0.28406174  0.84611229  0.39167321     0.08670
H814        H  0.28290727  0.86528363  0.45019083     0.05450
C815        C  0.08156713  0.80489079  0.29911519    -0.20360
C816        C  0.06837337  0.82316986  0.26111451    -0.06930
C817        C  0.08485145  0.80280949  0.21853620     0.13940
C818        C  0.11589292  0.76527633  0.21532017    -0.20410
C819        C  0.12318028  0.74276091  0.25250577    -0.06930
C820        C  0.10180631  0.76084031  0.29390670     0.13930
C821        C  0.09382525  0.73215343  0.32996177    -0.23760
H822        H  0.06544070  0.81931553  0.33108927     0.15220
H823        H  0.12866943  0.74963837  0.18260411     0.15250
C824        C  0.06107563  0.81241418  0.17730374    -0.23710
H825        H  0.07538591  0.75199821  0.35938843     0.05460
H826        H  0.12487677  0.71687651  0.34146013     0.08690
H827        H  0.07386844  0.70468115  0.31686280     0.08690
H828        H  0.05430144  0.84906997  0.17636476     0.08670
H829        H  0.02829978  0.79877250  0.17696689     0.08670
H830        H  0.08018326  0.79614402  0.14685180     0.05450
C831        C  0.37797153  0.86767383  0.28913243    -0.20360
C832        C  0.36093838  0.84688174  0.25018799    -0.06930
C833        C  0.39082090  0.82577226  0.21518743     0.13940
C834        C  0.43188283  0.80922706  0.22532015    -0.20410
C835        C  0.44825021  0.82576396  0.26532221    -0.06930
C836        C  0.42273723  0.85763227  0.29707557     0.13930
C837        C  0.44122409  0.87809024  0.33960376    -0.23760
H838        H  0.35540110  0.88576956  0.31556642     0.15220
H839        H  0.45347224  0.78844188  0.19950663     0.15250
C840        C  0.38412794  0.82607010  0.16697621    -0.23710
H841        H  0.41576573  0.90139984  0.36045213     0.05460
H842        H  0.46936573  0.89717598  0.33215514     0.08690
H843        H  0.45343497  0.85222385  0.35967596     0.08690
H844        H  0.35000822  0.83730001  0.16131586     0.08670
H845        H  0.39423545  0.79242902  0.14780237     0.08670
H846        H  0.40563564  0.84966104  0.15391342     0.05450
C847        C  0.40143795  0.71464832  0.48000857    -0.20360
C848        C  0.42172018  0.70544606  0.51980762    -0.06930
C849        C  0.38940314  0.69348508  0.05080884     0.13940
C850        C  0.34157650  0.69430236  0.04261931    -0.20410
C851        C  0.31887650  0.71178310  0.50660783    -0.06930
C852        C  0.35338707  0.71826112  0.47307171     0.13930
C853        C  0.34212369  0.72332851  0.42603162    -0.23760
H854        H  0.42401507  0.71731926  0.45228908     0.15220
H855        H  0.32204905  0.67739452  0.06370246     0.15250
C856        C  0.40512958  0.67845412  0.09331537    -0.23710
H857        H  0.37167602  0.71509635  0.40249380     0.05460
H858        H  0.32974544  0.75850923  0.42331636     0.08690
H859        H  0.31831612  0.69925265  0.41417535     0.08690
H860        H  0.42157518  0.70571678  0.11261506     0.08670
H861        H  0.42884738  0.64775528  0.08598775     0.08670
H862        H  0.37737338  0.66961832  0.11435242     0.05450
C863        C  0.08798632  0.75727760  0.05003626    -0.20360
C864        C  0.06374869  0.72863218  0.01989133    -0.06930
C865        C  0.09470711  0.69845761  0.48977665     0.13940
C866        C  0.14312745  0.69468043  0.49356969    -0.20410
C867        C  0.16847279  0.72367192  0.02274324    -0.06930
C868        C  0.13711708  0.75474031  0.05229001     0.13930
C869        C  0.15514455  0.78454793  0.08943702    -0.23760
H870        H  0.06792868  0.78235678  0.07316201     0.15220
H871        H  0.16065472  0.66582892  0.47393958     0.15250
C872        C  0.07959136  0.67047972  0.44991136    -0.23710
H873        H  0.13233321  0.81549552  0.09937007     0.05460
H874        H  0.18762896  0.79517994  0.07943884     0.08690
H875        H  0.15961600  0.76585050  0.11807559     0.08690
H876        H  0.04296835  0.67309020  0.44833275     0.08670
H877        H  0.09351927  0.63522726  0.45017957     0.08670
H878        H  0.09364927  0.68188504  0.41952187     0.05450
C879        C  0.23278514  0.97067667  0.36127982    -0.20360
C880        C  0.25359071  0.50293898  0.39144631    -0.06930
C881        C  0.27774706  0.53088254  0.36559317     0.13940
C882        C  0.28147045  0.52472194  0.31751049    -0.20410
C883        C  0.25500286  0.49918142  0.28723670    -0.06930
C884        C  0.23162064  0.96962097  0.31217314     0.13930
C885        C  0.20671106  0.93426987  0.28803882    -0.23760
H886        H  0.21715907  0.94494243  0.37578258     0.15220
H887        H  0.30620098  0.54267616  0.30350777     0.15250
C888        C  0.30050960  0.57010272  0.38745581    -0.23710
H889        H  0.18945449  0.91484202  0.31085766     0.05460
H890        H  0.23010371  0.91032607  0.26554726     0.08690
H891        H  0.18143450  0.95056776  0.26925361     0.08690
H892        H  0.28083067  0.58713139  0.41751143     0.08670
H893        H  0.30358542  0.59596715  0.36513701     0.08670
H894        H  0.33485497  0.55891297  0.39536609     0.05450
C895        C  0.20797972  0.52388801  0.07130166    -0.20360
C896        C  0.24240559  0.00271443  0.03872337    -0.06930
C897        C  0.27934118  0.98254931  0.06028919     0.13940
C898        C  0.28234069  0.98724175  0.10850560    -0.20410
C899        C  0.24826188  0.00799744  0.14113037    -0.06930
C900        C  0.21100635  0.52809013  0.11996258     0.13930
C901        C  0.17466397  0.55604110  0.14925203    -0.23760
H902        H  0.17748454  0.53740049  0.05834265     0.15220
H903        H  0.31184011  0.97105385  0.12028288     0.15250
C904        C  0.31419483  0.94960719  0.03409562    -0.23710
H905        H  0.14579153  0.56638924  0.13017444     0.05460
H906        H  0.18769983  0.58672193  0.16634238     0.08690
H907        H  0.16361275  0.03692794  0.17514427     0.08690
H908        H  0.34694082  0.46247815  0.03663897     0.08670
H909        H  0.30637391  0.94131168  0.99895096     0.08670
H910        H  0.31545576  0.91759332  0.04828058     0.05450
C911        C  0.48206602  0.97477964  0.24095605    -0.20360
C912        C  0.01686265  0.00205366  0.25401603    -0.06930
C913        C  0.05376383  0.97513172  0.26876099     0.13940
C914        C  0.05260764  0.92758467  0.27455803    -0.20410
C915        C  0.01808268  0.89961880  0.26047407    -0.06930
C916        C  0.48426478  0.92586847  0.23964146     0.13930
C917        C  0.45515884  0.90374816  0.20683019    -0.23760
H918        H  0.45368989  0.99135635  0.22700068     0.15220
H919        H  0.08124385  0.91149387  0.28855714     0.15250
C920        C  0.09675854  0.99522751  0.27608766    -0.23710
H921        H  0.45326025  0.92141185  0.17712878     0.05460
H922        H  0.42097131  0.90599905  0.22179399     0.08690
H923        H  0.46981584  0.86926235  0.19388224     0.08690
H924        H  0.11013662  0.98819878  0.30818844     0.08670
H925        H  0.09358903  0.03202153  0.27544860     0.08670
H926        H  0.12031569  0.98024984  0.24854689     0.05450
C927        C  0.47716580  0.68202016  0.29389747    -0.20360
C928        C  0.50441034  0.64996932  0.26274276    -0.06930
C929        C  0.02994837  0.67255206  0.23315360     0.13940
C930        C  0.02509953  0.72188869  0.23393479    -0.20410
C931        C  0.50053550  0.75441811  0.26761340    -0.06930
C932        C  0.47521383  0.73088091  0.29696389     0.13930
C933        C  0.44517383  0.75707176  0.33363118    -0.23760
H934        H  0.45624314  0.66855510  0.31754317     0.15220
H935        H  0.04047754  0.73410415  0.20630340     0.15250
C936        C  0.06422997  0.64518065  0.20108847    -0.23710
H937        H  0.46507153  0.78059563  0.35302447     0.05460
H938        H  0.41625974  0.77495669  0.32013109     0.08690
H939        H  0.43176052  0.73535617  0.35663586     0.08690
H940        H  0.08703451  0.62365211  0.21895377     0.08670
H941        H  0.08447507  0.66682907  0.18345341     0.08670
H942        H  0.04755270  0.62417938  0.17561571     0.05450
C943        C  0.93813131  0.80597527  0.95302888    -0.20360
C944        C  0.91418943  0.83541420  0.98714017    -0.06930
C945        C  0.41111025  0.81932155  0.02798957     0.13940
C946        C  0.44916531  0.79525778  0.04143409    -0.20410
C947        C  0.98319015  0.77532233  0.00895252    -0.06930
C948        C  0.97719997  0.78096430  0.96377630     0.13930
C949        C  0.01186936  0.76356449  0.92742486    -0.23760
H950        H  0.93434895  0.81268598  0.91933418     0.15220
H951        H  0.44937561  0.78663488  0.07494485     0.15250
C952        C  0.37093665  0.83305695  0.05857345    -0.23710
H953        H  0.01793998  0.79112258  0.90775027     0.05460
H954        H  0.00013711  0.73437965  0.40540042     0.08690
H955        H  0.04411911  0.75371286  0.94079274     0.08690
H956        H  0.34212824  0.84522105  0.54001087     0.08670
H957        H  0.37806956  0.86033786  0.08488603     0.08670
H958        H  0.36128954  0.80337645  0.07321153     0.05450
C959        C  0.49854573  0.62669671  0.50109448    -0.20360
C960        C  0.49700465  0.66009971  0.53646275    -0.06930
C961        C  0.02420136  0.65505501  0.07306220     0.13940
C962        C  0.05155984  0.61429800  0.07249879    -0.20410
C963        C  0.55534682  0.58171182  0.53421023    -0.06930
C964        C  0.53116181  0.59142695  0.49752688     0.13930
C965        C  0.53890465  0.56698419  0.45272166    -0.23760
H966        H  0.47891301  0.63167338  0.47254690     0.15220
H967        H  0.06876537  0.60739543  0.10172151     0.15250
C968        C  0.02253249  0.69105767  0.11278038    -0.23710
H969        H  0.54505186  0.59092671  0.42937087     0.05460
H970        H  0.50810938  0.55254539  0.44322761     0.08690
H971        H  0.56783619  0.54251320  0.45010220     0.08690
H972        H  0.00163632  0.72217236  0.10812920     0.08670
H973        H  0.05619085  0.70039501  0.61925117     0.08670
H974        H  0.00761825  0.67838811  0.14189381     0.05450
C975        C  0.30355079  0.55399632  0.99444903    -0.20360
C976        C  0.29977464  0.51848987  0.46022536    -0.06930
C977        C  0.33745044  0.99047988  0.44151988     0.13940
C978        C  0.37791331  0.00084524  0.45578080    -0.20410
C979        C  0.38143610  0.53144270  0.49390971    -0.06930
C980        C  0.34371967  0.55676493  0.01494990     0.13930
C981        C  0.34511932  0.58303925  0.06016576    -0.23760
H982        H  0.27410644  0.57520393  0.00865659     0.15220
H983        H  0.40617494  0.97981905  0.44032848     0.15250
C984        C  0.33611470  0.94690713  0.41011749    -0.23710
H985        H  0.31266673  0.60217620  0.07097349     0.05460
H986        H  0.37105329  0.60616527  0.05914966     0.08690
H987        H  0.35331669  0.55986486  0.08478187     0.08690
H988        H  0.34725141  0.95166169  0.37602205     0.08670
H989        H  0.30289723  0.93435234  0.40938347     0.08670
H990        H  0.35828534  0.91956452  0.42126123     0.05450
C991        C  0.14188562  0.43075567  0.43532308    -0.20360
C992        C  0.14118925  0.89593374  0.96198402    -0.06930
C993        C  0.17342076  0.89202445  0.99366927     0.13940
C994        C  0.20460200  0.92320522  0.99807481    -0.20410
C995        C  0.20074410  0.96146761  0.97606783    -0.06930
C996        C  0.16660728  0.46697241  0.44685829     0.13930
C997        C  0.15208112  0.51217625  0.43275454    -0.23760
H998        H  0.11839689  0.43342993  0.40962531     0.15220
H999        H  0.23096342  0.91834977  0.02043578     0.15250
C1000       C  0.17462157  0.85682487  0.02411093    -0.23710
H1001       H  0.14083867  0.53663442  0.46262866     0.05460
H1002       H  0.12535920  0.50889015  0.40917810     0.08690
H1003       H  0.17767310  0.52792318  0.41583432     0.08690
H1004       H  0.17334218  0.82303827  0.00461824     0.08670
H1005       H  0.14593367  0.86479658  0.04867641     0.08670
H1006       H  0.20536080  0.85610100  0.04299102     0.05450
C1007       C  0.03720358  0.54070596  0.35655541    -0.20360
C1008       C  0.50159287  0.51383239  0.35939925    -0.06930
C1009       C  0.46056317  0.02773022  0.34180230     0.13940
C1010       C  0.45824457  0.06575641  0.31981192    -0.20410
C1011       C  0.49607892  0.58840814  0.31375931    -0.06930
C1012       C  0.03296042  0.58038003  0.33825586     0.13930
C1013       C  0.06990449  0.61078965  0.34016966    -0.23760
H1014       H  0.06886860  0.53142838  0.36956059     0.15220
H1015       H  0.43064047  0.07166382  0.29950460     0.15250
C1016       C  0.42130219  0.00052243  0.34013628    -0.23710
H1017       H  0.09771040  0.59848466  0.35960930     0.05460
H1018       H  0.05638116  0.64483120  0.35643546     0.08690
H1019       H  0.08325139  0.61342962  0.30627772     0.08690
H1020       H  0.40814079  0.99917269  0.37390104     0.08670
H1021       H  0.43123117  0.96622190  0.32253330     0.08670
H1022       H  0.39364696  0.01557158  0.32218290     0.05450
C1023       C  0.06353440  0.02412487  0.17449499    -0.20360
C1024       C  0.52466781  0.05062879  0.19258593    -0.06930
C1025       C  0.48564442  0.54680172  0.16945025     0.13940
C1026       C  0.48071142  0.50554317  0.14447308    -0.20410
C1027       C  0.01810215  0.97249795  0.13401535    -0.06930
C1028       C  0.06086716  0.98560979  0.14326405     0.13930
C1029       C  0.10223572  0.96301469  0.11684678    -0.23760
H1030       H  0.09451904  0.02970524  0.18949415     0.15220
H1031       H  0.44812377  0.49977719  0.13257212     0.15250
C1032       C  0.44788336  0.58340314  0.17406767    -0.23710
H1033       H  0.13181464  0.98052631  0.12547417     0.05460
H1034       H  0.09835057  0.96368710  0.08089029     0.08690
H1035       H  0.10882610  0.92735153  0.12126057     0.08690
H1036       H  0.45430188  0.61307170  0.19788777     0.08670
H1037       H  0.41696310  0.56996362  0.18460435     0.08670
H1038       H  0.44299349  0.59464409  0.14114782     0.05450
Zn1039     Zn  0.05923511  0.45515339  0.96463469     1.49720
Zn1040     Zn  0.48732022  0.48206615  0.55264477     1.49360
Zn1041     Zn  0.46829749  0.95464257  0.96352996     1.49110
Zn1042     Zn  0.03153898  0.88911472  0.52363679     1.49480
O1043       O  0.01417620  0.44560905  0.49981659    -1.84180
O1044       O  0.08430509  0.50465626  0.00943459    -0.74810
O1045       O  0.42848675  0.51798587  0.55084466    -0.74630
O1046       O  0.47710747  0.95561681  0.89843197    -0.74150
O1047       O  0.53436096  0.52251445  0.56719448    -0.74830
O1048       O  0.04141272  0.47932341  0.91174997    -0.74420
O1049       O  0.45749038  0.01969318  0.98569139    -0.75010
O1050       O  0.97598091  0.86884130  0.50808934    -0.74400
O1051       O  0.47413577  0.43243816  0.58485206    -0.75160
O1052       O  0.42522410  0.91064712  0.97598924    -0.74550
O1053       O  0.04017526  0.90154515  0.58996857    -0.75010
O1054       O  0.08889570  0.85302406  0.49463063    -0.74920
O1055       O  0.06847212  0.38967085  0.94268515    -0.74710
C1056       C  0.56225544  0.53361341  0.03954929     0.77080
C1057       C  0.42432029  0.52791109  0.01242088     0.77570
C1058       C  0.50740624  0.47883757  0.88902186     0.76530
C1059       C  0.93792675  0.87523415  0.49200480     0.76910
C1060       C  0.00938190  0.93148417  0.60496916     0.78040
C1061       C  0.09971951  0.87375527  0.46309771     0.77090
C1062       C  0.51788483  0.05343112  0.74077248     0.00510
C1063       C  0.50667948  0.59644132  0.76861499     0.00510
C1064       C  0.23308066  0.99408256  0.48496261     0.00510
C1065       C  0.25716572  0.00677260  0.94676304     0.00510
C1066       C  0.47657069  0.70253565  0.02680580     0.00510
C1067       C  0.00825637  0.73366100  0.01851342     0.00510
C1068       C  0.02364090  0.84472028  0.76428323     0.00510
C1069       C  0.49353278  0.81049622  0.76867918     0.00510
Zn1070     Zn  0.30758378  0.72601048  0.76483388     1.49720
Zn1071     Zn  0.23120049  0.81124247  0.77920051     1.49360
Zn1072     Zn  0.21825078  0.72005642  0.71206836     1.49110
Zn1073     Zn  0.20518458  0.72540279  0.81300990     1.49480
O1074       O  0.24037991  0.74524623  0.76847560    -1.84180
O1075       O  0.33658892  0.78040889  0.76517866    -0.74810
O1076       O  0.18514663  0.82379195  0.73887796    -0.74630
O1077       O  0.26318821  0.67040225  0.71317195    -0.74150
O1078       O  0.28519169  0.83779696  0.76125407    -0.74830
O1079       O  0.32901925  0.68910069  0.70440321    -0.74420
O1080       O  0.21723529  0.77783436  0.68079406    -0.75010
O1081       O  0.16807561  0.68331874  0.77741198    -0.74400
O1082       O  0.21813297  0.83573086  0.84424454    -0.75160
O1083       O  0.16518253  0.68485654  0.70703495    -0.74550
O1084       O  0.17304944  0.78462549  0.83663950    -0.75010
O1085       O  0.25837834  0.70422659  0.84516553    -0.74920
O1086       O  0.32549290  0.69532417  0.81671488    -0.74710
C1087       C  0.32520347  0.82076315  0.75933768     0.77080
C1088       C  0.20157221  0.81741778  0.69920071     0.77570
C1089       C  0.29466123  0.67490315  0.68751435     0.76530
C1090       C  0.14910625  0.69874563  0.74562135     0.76910
C1091       C  0.19666386  0.80803758  0.86159689     0.78040
C1092       C  0.28957361  0.67851315  0.82336081     0.77090
C1093       C  0.22309302  0.71511676  0.52930822     0.00510
C1094       C  0.26354065  0.72010214  0.00163215     0.00510
C1095       C  0.24516203  0.99240444  0.69073322     0.00510
C1096       C  0.25147137  0.51367686  0.73569540     0.00510
C1097       C  0.23595587  0.62536199  0.79687530    -0.20360
C1098       C  0.27915912  0.63808668  0.79378129    -0.06930
C1099       C  0.31099597  0.61154892  0.76313687     0.13940
C1100       C  0.29736976  0.57572819  0.73370836    -0.20410
C1101       C  0.25459603  0.56227073  0.73919489    -0.06930
C1102       C  0.22257896  0.58945574  0.76837727     0.13930
C1103       C  0.17597268  0.57649503  0.77492763    -0.23760
H1104       H  0.21274114  0.64223712  0.82322872     0.15220
H1105       H  0.32216106  0.55316175  0.71278428     0.15250
C1106       C  0.35997559  0.61528906  0.76679692    -0.23710
H1107       H  0.15158020  0.60365484  0.76720485     0.05460
H1108       H  0.16983384  0.57059766  0.80984750     0.08690
H1109       H  0.17007041  0.54552538  0.75269768     0.08690
H1110       H  0.36791258  0.61655361  0.80224219     0.08670
H1111       H  0.37034837  0.64576919  0.75427622     0.08670
H1112       H  0.37968410  0.58536067  0.74824674     0.05450
C1113       C  0.25580810  0.86659116  0.67620384    -0.20360
C1114       C  0.21101302  0.85827075  0.68040427    -0.06930
C1115       C  0.17803952  0.89498289  0.68351772     0.13940
C1116       C  0.19036381  0.93826746  0.68365997    -0.20410
C1117       C  0.23472620  0.94627500  0.68585783    -0.06930
C1118       C  0.26822428  0.91069240  0.68037786     0.13930
C1119       C  0.31643560  0.91970502  0.68211578    -0.23760
H1120       H  0.28078237  0.83934412  0.67673500     0.15220
H1121       H  0.16519355  0.96637525  0.68714468     0.15250
C1122       C  0.13010093  0.88920793  0.69066004    -0.23710
H1123       H  0.33444371  0.90605629  0.64998263     0.05460
H1124       H  0.33104318  0.90547592  0.70994205     0.08690
H1125       H  0.32196801  0.95577371  0.68904618     0.08690
H1126       H  0.12456616  0.87608442  0.72228903     0.08670
H1127       H  0.12105703  0.86611344  0.66192697     0.08670
H1128       H  0.10835873  0.92122239  0.69325892     0.05450
C1129       C  0.25985795  0.73721630  0.59643929    -0.20360
C1130       C  0.23420212  0.70681436  0.57333339    -0.06930
C1131       C  0.22702982  0.66626529  0.58867418     0.13940
C1132       C  0.25134895  0.65389742  0.62388414    -0.20410
C1133       C  0.28172755  0.68207041  0.64377654    -0.06930
C1134       C  0.28528785  0.72429450  0.63026549     0.13930
C1135       C  0.31633428  0.75560069  0.65018081    -0.23760
H1136       H  0.26365230  0.76925528  0.58471662     0.15220
H1137       H  0.24610856  0.62281713  0.63670921     0.15250
C1138       C  0.19316590  0.63726999  0.56885099    -0.23710
H1139       H  0.31752471  0.78352307  0.63033881     0.05460
H1140       H  0.35009834  0.73821894  0.64930376     0.08690
H1141       H  0.30515022  0.76824007  0.68503210     0.08690
H1142       H  0.20256831  0.62434591  0.53342599     0.08670
H1143       H  0.15989849  0.65666981  0.57200612     0.08670
H1144       H  0.19003464  0.60897097  0.58741224     0.05450
C1145       C  0.19818662  0.74830573  0.90877000    -0.20360
C1146       C  0.21040844  0.79132546  0.90274393    -0.06930
C1147       C  0.24199074  0.81103342  0.93054567     0.13940
C1148       C  0.25719313  0.78836304  0.96514684    -0.20410
C1149       C  0.24986060  0.74303332  0.96504962    -0.06930
C1150       C  0.22343335  0.72173269  0.93402499     0.13930
C1151       C  0.22715740  0.67074236  0.92349658    -0.23760
H1152       H  0.17511198  0.73185148  0.88778276     0.15220
H1153       H  0.27821726  0.80414662  0.98952790     0.15250
C1154       C  0.26232619  0.85323749  0.92241551    -0.23710
H1155       H  0.19973645  0.65887660  0.90312311     0.05460
H1156       H  0.22888801  0.65377440  0.95358111     0.08690
H1157       H  0.25896260  0.65902948  0.90481532     0.08690
H1158       H  0.23607393  0.88040415  0.91863973     0.08670
H1159       H  0.28417846  0.84618927  0.89153309     0.08670
H1160       H  0.28311316  0.86542344  0.95003565     0.05450
C1161       C  0.08167041  0.80495366  0.79911692    -0.20360
C1162       C  0.06842925  0.82318857  0.76110603    -0.06930
C1163       C  0.08484607  0.80276518  0.71852607     0.13940
C1164       C  0.11587949  0.76522066  0.71531859    -0.20410
C1165       C  0.12320369  0.74275107  0.75253179    -0.06930
C1166       C  0.10188598  0.76089319  0.79394083     0.13930
C1167       C  0.09395665  0.73226480  0.83006116    -0.23760
H1168       H  0.06559300  0.81942616  0.83109957     0.15220
H1169       H  0.12861733  0.74953910  0.68260313     0.15250
C1170       C  0.06102506  0.81234995  0.67730827    -0.23710
H1171       H  0.07547825  0.75213556  0.85944610     0.05460
H1172       H  0.12503563  0.71709636  0.84161336     0.08690
H1173       H  0.07405936  0.70471858  0.81701660     0.08690
H1174       H  0.05436622  0.84900021  0.67628218     0.08670
H1175       H  0.02818072  0.79885711  0.67709866     0.08670
H1176       H  0.08000218  0.79591776  0.64683602     0.05450
C1177       C  0.37796078  0.86762267  0.78929697    -0.20360
C1178       C  0.36093850  0.84687578  0.75032364    -0.06930
C1179       C  0.39083107  0.82580689  0.71531061     0.13940
C1180       C  0.43190474  0.80927367  0.72543713    -0.20410
C1181       C  0.44826709  0.82578078  0.76545321    -0.06930
C1182       C  0.42273723  0.85761520  0.79722448     0.13930
C1183       C  0.44123236  0.87810272  0.83973422    -0.23760
H1184       H  0.35538202  0.88567380  0.81574589     0.15220
H1185       H  0.45349348  0.78850198  0.69961780     0.15250
C1186       C  0.38407650  0.82600603  0.66709024    -0.23710
H1187       H  0.41580409  0.90147689  0.86054350     0.05460
H1188       H  0.46940763  0.89713006  0.83225203     0.08690
H1189       H  0.45337550  0.85226122  0.85986218     0.08690
H1190       H  0.34994221  0.83718609  0.66144991     0.08670
H1191       H  0.39418755  0.79233859  0.64797874     0.08670
H1192       H  0.40553728  0.84958924  0.65393293     0.05450
C1193       C  0.40190466  0.71473842  0.98015868    -0.20360
C1194       C  0.42215492  0.70550627  0.01996295    -0.06930
C1195       C  0.38900378  0.69341629  0.55068561     0.13940
C1196       C  0.34117369  0.69416157  0.54251944    -0.20410
C1197       C  0.31931493  0.71197865  0.00671738    -0.06930
C1198       C  0.35385576  0.71848050  0.97321626     0.13930
C1199       C  0.34262815  0.72384390  0.92622670    -0.23760
H1200       H  0.42450771  0.71735185  0.95244416     0.15220
H1201       H  0.32167165  0.67725583  0.56363412     0.15250
C1202       C  0.40478065  0.67851109  0.59322766    -0.23710
H1203       H  0.37218366  0.71570843  0.90268906     0.05460
H1204       H  0.33031339  0.75908961  0.92371563     0.08690
H1205       H  0.31880185  0.69986812  0.91418680     0.08690
H1206       H  0.42120419  0.70583514  0.61245418     0.08670
H1207       H  0.42853555  0.64783798  0.58595719     0.08670
H1208       H  0.37705733  0.66969225  0.61431716     0.05450
C1209       C  0.08755016  0.75725692  0.54988641    -0.20360
C1210       C  0.06331443  0.72858965  0.51974575    -0.06930
C1211       C  0.09512402  0.69856977  0.98983721     0.13940
C1212       C  0.14355771  0.69485987  0.99354180    -0.20410
C1213       C  0.16804307  0.72354499  0.52270361    -0.06930
C1214       C  0.13668662  0.75469052  0.55217605     0.13930
C1215       C  0.15472122  0.78453238  0.58929396    -0.23760
H1216       H  0.06749526  0.78236466  0.57299214     0.15220
H1217       H  0.16109293  0.66611103  0.97376181     0.15250
C1218       C  0.07995679  0.67058135  0.94999530    -0.23710
H1219       H  0.13189039  0.81546825  0.59922312     0.05460
H1220       H  0.18719335  0.79516791  0.57926264     0.08690
H1221       H  0.15924628  0.76586269  0.61794793     0.08690
H1222       H  0.04333206  0.67321753  0.94844971     0.08670
H1223       H  0.09384410  0.63531671  0.95027563     0.08670
H1224       H  0.09398934  0.68195662  0.91957775     0.05450
C1225       C  0.23292087  0.97057961  0.86123990    -0.20360
C1226       C  0.25355320  0.50274628  0.89141295    -0.06930
C1227       C  0.27767819  0.53072113  0.86557194     0.13940
C1228       C  0.28137601  0.52460524  0.81749308    -0.20410
C1229       C  0.25494984  0.49902777  0.78721399    -0.06930
C1230       C  0.23172688  0.96956618  0.81213998     0.13930
C1231       C  0.20673099  0.93429658  0.78799355    -0.23760
H1232       H  0.21728763  0.94483633  0.87571336     0.15220
H1233       H  0.30605898  0.54261814  0.80349369     0.15250
C1234       C  0.30042905  0.56993368  0.88745325    -0.23710
H1235       H  0.18938971  0.91492564  0.81080579     0.05460
H1236       H  0.23008256  0.91029384  0.76551799     0.08690
H1237       H  0.18152409  0.95066503  0.76917898     0.08690
H1238       H  0.28071182  0.58694847  0.91748802     0.08670
H1239       H  0.30354578  0.59579457  0.86513537     0.08670
H1240       H  0.33475659  0.55873689  0.89541201     0.05450
C1241       C  0.20796519  0.52390393  0.57134627    -0.20360
C1242       C  0.24233532  0.00281296  0.53872186    -0.06930
C1243       C  0.27929893  0.98266555  0.56026305     0.13940
C1244       C  0.28229788  0.98729661  0.60848118    -0.20410
C1245       C  0.24821711  0.00802089  0.64112083    -0.06930
C1246       C  0.21097367  0.52801082  0.62000254     0.13930
C1247       C  0.17457503  0.55583573  0.64931605    -0.23760
H1248       H  0.17745206  0.53738966  0.55839936     0.15220
H1249       H  0.31178870  0.97107153  0.62025048     0.15250
C1250       C  0.31420287  0.94982352  0.53402482    -0.23710
H1251       H  0.14565704  0.56610119  0.63025938     0.05460
H1252       H  0.18752200  0.58655889  0.66642312     0.08690
H1253       H  0.16342335  0.03675741  0.67504424     0.08690
H1254       H  0.34701227  0.46280425  0.53662468     0.08670
H1255       H  0.30636842  0.94153732  0.49888326     0.08670
H1256       H  0.31555806  0.91779134  0.54817376     0.05450
C1257       C  0.48204267  0.97489806  0.74112790    -0.20360
C1258       C  0.01689361  0.00208887  0.75403638    -0.06930
C1259       C  0.05384483  0.97513891  0.76865973     0.13940
C1260       C  0.05269401  0.92759568  0.77447417    -0.20410
C1261       C  0.01811905  0.89964876  0.76050033    -0.06930
C1262       C  0.48420251  0.92598709  0.73983052     0.13930
C1263       C  0.45494753  0.90390710  0.70714544    -0.23760
H1264       H  0.45362693  0.99151122  0.72726708     0.15220
H1265       H  0.08136834  0.91149446  0.78840306     0.15250
C1266       C  0.09687084  0.99520968  0.77586341    -0.23710
H1267       H  0.45279488  0.92166995  0.67752356     0.05460
H1268       H  0.42084511  0.90606770  0.72228628     0.08690
H1269       H  0.46962951  0.86946947  0.69403322     0.08690
H1270       H  0.11031214  0.98820736  0.80794456     0.08670
H1271       H  0.09371671  0.03199766  0.77518305     0.08670
H1272       H  0.12037733  0.98018604  0.74829774     0.05450
C1273       C  0.47740936  0.68209496  0.79415926    -0.20360
C1274       C  0.50451726  0.65002307  0.76289687    -0.06930
C1275       C  0.02995250  0.67255403  0.73316943     0.13940
C1276       C  0.02509610  0.72189386  0.73394809    -0.20410
C1277       C  0.50062701  0.75448019  0.76772797    -0.06930
C1278       C  0.47546660  0.73095487  0.79720910     0.13930
C1279       C  0.44564847  0.75717820  0.83402297    -0.23760
H1280       H  0.45659008  0.66865513  0.81791033     0.15220
H1281       H  0.04037363  0.73410334  0.70625655     0.15250
C1282       C  0.06410507  0.64518512  0.70095937    -0.23710
H1283       H  0.46569249  0.78068312  0.85325454     0.05460
H1284       H  0.41664768  0.77508823  0.82068680     0.08690
H1285       H  0.43237986  0.73548223  0.85712474     0.08690
H1286       H  0.08697221  0.62360553  0.71871449     0.08670
H1287       H  0.08430864  0.66683749  0.68327912     0.08670
H1288       H  0.04730932  0.62424332  0.67553446     0.05450
C1289       C  0.93775389  0.80607122  0.45280604    -0.20360
C1290       C  0.91381619  0.83548583  0.48694377    -0.06930
C1291       C  0.41064391  0.81932388  0.52775980     0.13940
C1292       C  0.44869309  0.79522745  0.54117306    -0.20410
C1293       C  0.98273998  0.77525752  0.50869751    -0.06930
C1294       C  0.97676415  0.78094564  0.46352959     0.13930
C1295       C  0.01137436  0.76342224  0.42715126    -0.23760
H1296       H  0.93400694  0.81284325  0.41912421     0.15220
H1297       H  0.44894106  0.78665483  0.57470093     0.15250
C1298       C  0.37073993  0.83352447  0.55861156    -0.23710
H1299       H  0.01752722  0.79093368  0.40744295     0.05460
H1300       H  0.00073958  0.73448272  0.90564607     0.08690
H1301       H  0.04360475  0.75346621  0.44050155     0.08690
H1302       H  0.34251230  0.84508555  0.03990922     0.08670
H1303       H  0.37812379  0.86110673  0.58451031     0.08670
H1304       H  0.36123713  0.80413508  0.57382186     0.05450
C1305       C  0.49893372  0.62675365  0.00117400    -0.20360
C1306       C  0.49741717  0.66010080  0.03657934    -0.06930
C1307       C  0.02380750  0.65510414  0.57295584     0.13940
C1308       C  0.05124948  0.61440804  0.57240110    -0.20410
C1309       C  0.55559710  0.58159286  0.03428355    -0.06930
C1310       C  0.53147451  0.59142361  0.99759367     0.13930
C1311       C  0.53909704  0.56693390  0.95279915    -0.23760
H1312       H  0.47931698  0.63179332  0.97262934     0.15220
H1313       H  0.06853094  0.60758959  0.60160656     0.15250
C1314       C  0.02212555  0.69113754  0.61265287    -0.23710
H1315       H  0.54539932  0.59083385  0.92944421     0.05460
H1316       H  0.50821653  0.55261666  0.94334766     0.08690
H1317       H  0.56790791  0.54232558  0.95018909     0.08690
H1318       H  0.00115714  0.72220743  0.60800121     0.08670
H1319       H  0.05661068  0.70024320  0.11943031     0.08670
H1320       H  0.00730443  0.67845860  0.64180915     0.05450
C1321       C  0.30351316  0.55420650  0.49458166    -0.20360
C1322       C  0.29976264  0.51823475  0.96015566    -0.06930
C1323       C  0.33761342  0.99010066  0.94153663     0.13940
C1324       C  0.37810432  0.00031980  0.95583943    -0.20410
C1325       C  0.38144689  0.53114163  0.99375183    -0.06930
C1326       C  0.34365078  0.55693490  0.51515596     0.13930
C1327       C  0.34491930  0.58293085  0.56051940    -0.23760
H1328       H  0.27404065  0.57535684  0.50881039     0.15220
H1329       H  0.40634685  0.97923617  0.94038776     0.15250
C1330       C  0.33620343  0.94658201  0.91008860    -0.23710
H1331       H  0.31243873  0.60199835  0.57135622     0.05460
H1332       H  0.37083690  0.60608832  0.55975505     0.08690
H1333       H  0.35306276  0.55956569  0.58497677     0.08690
H1334       H  0.34748072  0.95135575  0.87604062     0.08670
H1335       H  0.30293554  0.93415606  0.90923111     0.08670
H1336       H  0.35823375  0.91915243  0.92127271     0.05450
C1337       C  0.14187220  0.43057090  0.93529028    -0.20360
C1338       C  0.14089611  0.89620103  0.46230779    -0.06930
C1339       C  0.17328808  0.89219662  0.49381710     0.13940
C1340       C  0.20454557  0.92330266  0.49807408    -0.20410
C1341       C  0.20063961  0.96157710  0.47609019    -0.06930
C1342       C  0.16659102  0.46678555  0.94683550     0.13930
C1343       C  0.15206370  0.51199065  0.93274791    -0.23760
H1344       H  0.11836673  0.43326313  0.90960819     0.15220
H1345       H  0.23099975  0.91839814  0.52032420     0.15250
C1346       C  0.17457933  0.85697469  0.52423208    -0.23710
H1347       H  0.14082530  0.53642798  0.96263909     0.05460
H1348       H  0.12534773  0.50870844  0.90916442     0.08690
H1349       H  0.17765406  0.52774773  0.91583666     0.08690
H1350       H  0.17309185  0.82322024  0.50474368     0.08670
H1351       H  0.14604544  0.86503002  0.54897181     0.08670
H1352       H  0.20544661  0.85611839  0.54291254     0.05450
C1353       C  0.03716208  0.54064129  0.85667234    -0.20360
C1354       C  0.50153939  0.51380455  0.85948783    -0.06930
C1355       C  0.46083957  0.02783348  0.84195070     0.13940
C1356       C  0.45848474  0.06591298  0.82004817    -0.20410
C1357       C  0.49609611  0.58840675  0.81386901    -0.06930
C1358       C  0.03295461  0.58032521  0.83838516     0.13930
C1359       C  0.06992386  0.61071156  0.84032401    -0.23760
H1360       H  0.06882315  0.53132486  0.86966259     0.15220
H1361       H  0.43080830  0.07191582  0.79987586     0.15250
C1362       C  0.42151617  0.00071248  0.84042188    -0.23710
H1363       H  0.09771369  0.59837987  0.85976874     0.05460
H1364       H  0.05642349  0.64476161  0.85659225     0.08690
H1365       H  0.08329446  0.61335192  0.80644012     0.08690
H1366       H  0.40845553  0.99940140  0.87423331     0.08670
H1367       H  0.43133665  0.96639181  0.82280855     0.08670
H1368       H  0.39382288  0.01581708  0.82255601     0.05450
C1369       C  0.06321228  0.02405010  0.67442020    -0.20360
C1370       C  0.52453412  0.05079338  0.69264734    -0.06930
C1371       C  0.48579378  0.54700377  0.66954475     0.13940
C1372       C  0.48071741  0.50578340  0.64457061    -0.20410
C1373       C  0.01732005  0.97273931  0.63417840    -0.06930
C1374       C  0.06023039  0.98553159  0.64330323     0.13930
C1375       C  0.10145533  0.96266240  0.61681327    -0.23760
H1376       H  0.09429761  0.02944985  0.68928203     0.15220
H1377       H  0.44811516  0.50016160  0.63262880     0.15250
C1378       C  0.44821281  0.58378916  0.67403693    -0.23710
H1379       H  0.13118477  0.97999094  0.62536019     0.05460
H1380       H  0.09752004  0.96331566  0.58085987     0.08690
H1381       H  0.10781458  0.92698288  0.62124481     0.08690
H1382       H  0.45473228  0.61343859  0.69782481     0.08670
H1383       H  0.41716861  0.57055880  0.68453812     0.08670
H1384       H  0.44348467  0.59499617  0.64107949     0.05450
Zn1385     Zn  0.55922743  0.95545853  0.46477435     1.49720
Zn1386     Zn  0.98771640  0.98128148  0.05250942     1.49360
Zn1387     Zn  0.96776259  0.45481990  0.46353769     1.49110
Zn1388     Zn  0.53153512  0.38879834  0.02353872     1.49480
O1389       O  0.51480405  0.94516553  0.99959905    -1.84180
O1390       O  0.58438644  0.00497791  0.50946289    -0.74810
O1391       O  0.92861492  0.01664233  0.05068417    -0.74630
O1392       O  0.97673286  0.45572919  0.39844930    -0.74150
O1393       O  0.03416748  0.02245600  0.06687807    -0.74830
O1394       O  0.54140696  0.97953434  0.41184374    -0.74420
O1395       O  0.95714639  0.51988773  0.48551878    -0.75010
O1396       O  0.47586783  0.36864483  0.00818591    -0.74400
O1397       O  0.97510226  0.93163751  0.08494435    -0.75160
O1398       O  0.92460745  0.41082615  0.47595975    -0.74550
O1399       O  0.54045656  0.40146569  0.08981004    -0.75010
O1400       O  0.58872935  0.35251851  0.99436863    -0.74920
O1401       O  0.56850205  0.88998682  0.44286560    -0.74710
C1402       C  0.06237147  0.03394022  0.53962432     0.77080
C1403       C  0.92443262  0.02836301  0.51248439     0.77570
C1404       C  0.00747757  0.97900795  0.38908711     0.76530
C1405       C  0.43781869  0.37502016  0.99208418     0.76910
C1406       C  0.50957666  0.43126870  0.10491628     0.78040
C1407       C  0.59958217  0.37333865  0.96291265     0.77090
C1408       C  0.01774631  0.55343419  0.24068794     0.00510
C1409       C  0.00663807  0.09642915  0.26850371     0.00510
C1410       C  0.73282376  0.49382599  0.98505467     0.00510
C1411       C  0.75681761  0.50679809  0.44688435     0.00510
C1412       C  0.97618266  0.20271844  0.52688554     0.00510
C1413       C  0.50784220  0.23382566  0.51856804     0.00510
C1414       C  0.52343305  0.34469240  0.26430545     0.00510
C1415       C  0.99333944  0.31052531  0.26869811     0.00510
Zn1416     Zn  0.80732631  0.22622902  0.26518757     1.49720
Zn1417     Zn  0.73088140  0.31136177  0.27939296     1.49360
Zn1418     Zn  0.71809027  0.22014819  0.21225683     1.49110
Zn1419     Zn  0.70488492  0.22544073  0.31316850     1.49480
O1420       O  0.74011402  0.24536241  0.26869872    -1.84180
O1421       O  0.83630752  0.28064689  0.26568513    -0.74810
O1422       O  0.68483655  0.32385815  0.23901957    -0.74630
O1423       O  0.76308765  0.17056015  0.21333586    -0.74150
O1424       O  0.78490310  0.33795397  0.26149832    -0.74830
O1425       O  0.82887647  0.18943911  0.20473484    -0.74420
O1426       O  0.71702193  0.27790650  0.18097254    -0.75010
O1427       O  0.66780334  0.18331159  0.27758750    -0.74400
O1428       O  0.71771411  0.33582771  0.34443025    -0.75160
O1429       O  0.66508335  0.18487066  0.20720059    -0.74550
O1430       O  0.67270795  0.28465092  0.33677181    -0.75010
O1431       O  0.75802610  0.20423645  0.34536275    -0.74920
O1432       O  0.82518822  0.19550464  0.31705928    -0.74710
C1433       C  0.82492497  0.32096622  0.25973639     0.77080
C1434       C  0.70127774  0.31747609  0.19934617     0.77570
C1435       C  0.79460709  0.17511826  0.18775869     0.76530
C1436       C  0.64890691  0.19873318  0.24575642     0.76910
C1437       C  0.69626621  0.30809970  0.36175576     0.78040
C1438       C  0.78929235  0.17861109  0.32357399     0.77090
C1439       C  0.72310741  0.21502284  0.02947039     0.00510
C1440       C  0.76314537  0.22024084  0.50180050     0.00510
C1441       C  0.74483609  0.49243830  0.19086282     0.00510
C1442       C  0.75169282  0.01374483  0.23560997     0.00510
C1443       C  0.73584060  0.12537104  0.29687499    -0.20360
C1444       C  0.77900900  0.13820286  0.29388818    -0.06930
C1445       C  0.81094107  0.11177192  0.26326548     0.13940
C1446       C  0.79743285  0.07594775  0.23374964    -0.20410
C1447       C  0.75469545  0.06236485  0.23914421    -0.06930
C1448       C  0.72258496  0.08945337  0.26830604     0.13930
C1449       C  0.67601236  0.07636847  0.27478233    -0.23760
H1450       H  0.71256865  0.14214988  0.32322297     0.15220
H1451       H  0.82229360  0.05346272  0.21283375     0.15250
C1452       C  0.85989718  0.11568133  0.26697165    -0.23710
H1453       H  0.65156896  0.10348270  0.26704985     0.05460
H1454       H  0.66984958  0.07044255  0.30969038     0.08690
H1455       H  0.67020527  0.04537855  0.25253500     0.08690
H1456       H  0.86786737  0.11668169  0.30238747     0.08670
H1457       H  0.87013727  0.14634684  0.25472846     0.08670
H1458       H  0.87971867  0.08597602  0.24817805     0.05450
C1459       C  0.75551507  0.36663513  0.17642019    -0.20360
C1460       C  0.71069659  0.35832895  0.18054537    -0.06930
C1461       C  0.67771856  0.39502414  0.18359745     0.13940
C1462       C  0.69003620  0.43831603  0.18373771    -0.20410
C1463       C  0.73439492  0.44632398  0.18601420    -0.06930
C1464       C  0.76789526  0.41076436  0.18061428     0.13930
C1465       C  0.81609833  0.41980245  0.18246411    -0.23760
H1466       H  0.78030770  0.33955922  0.17702074     0.15220
H1467       H  0.66488306  0.46641754  0.18713853     0.15250
C1468       C  0.62977449  0.38923825  0.19066587    -0.23710
H1469       H  0.83418006  0.40615435  0.15037329     0.05460
H1470       H  0.83062706  0.40561887  0.21034892     0.08690
H1471       H  0.82161733  0.45588142  0.18936759     0.08690
H1472       H  0.62420748  0.37609709  0.22227911     0.08670
H1473       H  0.62076617  0.36615589  0.16190737     0.08670
H1474       H  0.60802839  0.42124883  0.19324366     0.05450
C1475       C  0.75980077  0.23726188  0.09660121    -0.20360
C1476       C  0.73421926  0.20678775  0.07349990    -0.06930
C1477       C  0.72719738  0.16619238  0.08879289     0.13940
C1478       C  0.75155339  0.15387016  0.12399823    -0.20410
C1479       C  0.78178055  0.18217692  0.14396512    -0.06930
C1480       C  0.78523138  0.22441536  0.13045320     0.13930
C1481       C  0.81623302  0.25577346  0.15034115    -0.23760
H1482       H  0.76353728  0.26930031  0.08485640     0.15220
H1483       H  0.74643104  0.12274705  0.13678660     0.15250
C1484       C  0.69343912  0.13711469  0.06890024    -0.23710
H1485       H  0.81733245  0.28369242  0.13049843     0.05460
H1486       H  0.85002126  0.23842414  0.14940595     0.08690
H1487       H  0.80508758  0.26838955  0.18521062     0.08690
H1488       H  0.70290428  0.12422302  0.03348023     0.08670
H1489       H  0.66012846  0.15642609  0.07202081     0.08670
H1490       H  0.69037081  0.10881537  0.08744569     0.05450
C1491       C  0.69782198  0.24835512  0.40891563    -0.20360
C1492       C  0.70998281  0.29140669  0.40291650    -0.06930
C1493       C  0.74150105  0.31117009  0.43076001     0.13940
C1494       C  0.75669293  0.28852166  0.46537535    -0.20410
C1495       C  0.74945506  0.24316383  0.46523138    -0.06930
C1496       C  0.72310191  0.22181019  0.43417115     0.13930
C1497       C  0.72690648  0.17080892  0.42365447    -0.23760
H1498       H  0.67478860  0.23186397  0.38790406     0.15220
H1499       H  0.77766507  0.30433844  0.48978825     0.15250
C1500       C  0.76181159  0.35339063  0.42263946    -0.23710
H1501       H  0.69959096  0.15889814  0.40315326     0.05460
H1502       H  0.72851576  0.15384686  0.45374861     0.08690
H1503       H  0.75879094  0.15912492  0.40510882     0.08690
H1504       H  0.73554564  0.38052810  0.41882087     0.08670
H1505       H  0.78370005  0.34634743  0.39178190     0.08670
H1506       H  0.78255920  0.36560975  0.45028055     0.05450
C1507       C  0.58143419  0.30494904  0.29917351    -0.20360
C1508       C  0.56821520  0.32316325  0.26114769    -0.06930
C1509       C  0.58464132  0.30271938  0.21858093     0.13940
C1510       C  0.61568163  0.26518074  0.21540253    -0.20410
C1511       C  0.62298376  0.24272918  0.25263118    -0.06930
C1512       C  0.60162899  0.26088405  0.29402043     0.13930
C1513       C  0.59364202  0.23227294  0.33013981    -0.23760
H1514       H  0.56534503  0.31943892  0.33114632     0.15220
H1515       H  0.62842529  0.24947709  0.18269814     0.15250
C1516       C  0.56081221  0.31226724  0.17735671    -0.23710
H1517       H  0.57512332  0.25215201  0.35949888     0.05460
H1518       H  0.62469738  0.21710441  0.34174015     0.08690
H1519       H  0.57375301  0.20473430  0.31706437     0.08690
H1520       H  0.52795330  0.29880008  0.17717352     0.08670
H1521       H  0.57977839  0.29578697  0.14690215     0.08670
H1522       H  0.55416188  0.34890905  0.17628788     0.05450
C1523       C  0.87781156  0.36772224  0.28964367    -0.20360
C1524       C  0.86068366  0.34704956  0.25069436    -0.06930
C1525       C  0.89050152  0.32596343  0.21561872     0.13940
C1526       C  0.93158999  0.30938148  0.22564139    -0.20410
C1527       C  0.94806265  0.32585409  0.26560332    -0.06930
C1528       C  0.92261456  0.35767725  0.29745073     0.13930
C1529       C  0.94122945  0.37811721  0.33991156    -0.23760
H1530       H  0.85529788  0.38575874  0.31615475     0.15220
H1531       H  0.95312231  0.28861360  0.19976276     0.15250
C1532       C  0.88369557  0.32629018  0.16742550    -0.23710
H1533       H  0.91582827  0.40142459  0.36083908     0.05460
H1534       H  0.96933418  0.39720508  0.33234911     0.08690
H1535       H  0.95352693  0.35224348  0.35994033     0.08690
H1536       H  0.84960487  0.33732778  0.16184513     0.08670
H1537       H  0.89393839  0.29268182  0.14820940     0.08670
H1538       H  0.90503976  0.35001465  0.15432308     0.05450
C1539       C  0.90150422  0.21489246  0.48027302    -0.20360
C1540       C  0.92176985  0.20565502  0.52006267    -0.06930
C1541       C  0.88902338  0.19333174  0.05091896     0.13940
C1542       C  0.84119299  0.19407351  0.04275336    -0.20410
C1543       C  0.81892477  0.21212035  0.50686197    -0.06930
C1544       C  0.85345221  0.21866238  0.47336034     0.13930
C1545       C  0.84220957  0.22415082  0.42640360    -0.23760
H1546       H  0.92409921  0.21751734  0.45255663     0.15220
H1547       H  0.82168283  0.17723207  0.06391732     0.15250
C1548       C  0.90478675  0.17853776  0.09351418    -0.23710
H1549       H  0.87176767  0.21614666  0.40285750     0.05460
H1550       H  0.82983429  0.25940156  0.42399522     0.08690
H1551       H  0.81843346  0.20015422  0.41429096     0.08690
H1552       H  0.92115172  0.20592826  0.11270654     0.08670
H1553       H  0.92859850  0.14789922  0.08632729     0.08670
H1554       H  0.87705889  0.16971805  0.11460000     0.05450
C1555       C  0.58753581  0.25709742  0.05006491    -0.20360
C1556       C  0.56330836  0.22847970  0.01987456    -0.06930
C1557       C  0.59472717  0.19880362  0.48986927     0.13940
C1558       C  0.64315968  0.19507961  0.49359256    -0.20410
C1559       C  0.66804854  0.22344431  0.02285777    -0.06930
C1560       C  0.63667200  0.25453038  0.05237152     0.13930
C1561       C  0.65468774  0.28433311  0.08952744    -0.23760
H1562       H  0.56746794  0.28217430  0.07318585     0.15220
H1563       H  0.66069585  0.16638137  0.47374363     0.15250
C1564       C  0.57958002  0.17089091  0.44996929    -0.23710
H1565       H  0.63182770  0.31523057  0.09952406     0.05460
H1566       H  0.68711904  0.29505257  0.07949657     0.08690
H1567       H  0.65927531  0.26559790  0.11812629     0.08690
H1568       H  0.54295374  0.17345611  0.44845075     0.08670
H1569       H  0.59355062  0.13563680  0.45014167     0.08670
H1570       H  0.59356077  0.18238056  0.41959017     0.05450
C1571       C  0.73258905  0.47060000  0.36136403    -0.20360
C1572       C  0.75372815  0.00292618  0.39133013    -0.06930
C1573       C  0.77787947  0.03086342  0.36546698     0.13940
C1574       C  0.78162910  0.02467374  0.31738852    -0.20410
C1575       C  0.75518096  0.99910618  0.28712622    -0.06930
C1576       C  0.73140152  0.46958799  0.31226364     0.13930
C1577       C  0.70645450  0.43428055  0.28811239    -0.23760
H1578       H  0.71696064  0.44485381  0.37584085     0.15220
H1579       H  0.80634907  0.04263822  0.30337645     0.15250
C1580       C  0.80059571  0.07011640  0.38731567    -0.23710
H1581       H  0.68911181  0.41490759  0.31092152     0.05460
H1582       H  0.72983663  0.41028984  0.26566529     0.08690
H1583       H  0.68125781  0.45060599  0.26926230     0.08690
H1584       H  0.78093076  0.08708926  0.41739880     0.08670
H1585       H  0.80356313  0.09601067  0.36501463     0.08670
H1586       H  0.83497412  0.05897692  0.39517085     0.05450
C1587       C  0.70825820  0.02387460  0.07123061    -0.20360
C1588       C  0.74207906  0.50261318  0.03880966    -0.06930
C1589       C  0.77900336  0.48243044  0.06037632     0.13940
C1590       C  0.78200169  0.48712652  0.10859676    -0.20410
C1591       C  0.74795752  0.50797737  0.14122106    -0.06930
C1592       C  0.71127265  0.02802783  0.11989449     0.13930
C1593       C  0.67491027  0.05591308  0.14921917    -0.23760
H1594       H  0.67774434  0.03734951  0.05827691     0.15220
H1595       H  0.81145818  0.47085988  0.12038673     0.15250
C1596       C  0.81384947  0.44949090  0.03417033    -0.23710
H1597       H  0.64598517  0.06618783  0.13017615     0.05460
H1598       H  0.68788882  0.08662819  0.16629987     0.08690
H1599       H  0.66327244  0.53702057  0.17517505     0.08690
H1600       H  0.84729120  0.96260911  0.03658952     0.08670
H1601       H  0.80601147  0.44118763  0.99903087     0.08670
H1602       H  0.81511958  0.41748178  0.04835946     0.05450
C1603       C  0.98188629  0.47490904  0.24105050    -0.20360
C1604       C  0.51675308  0.50204448  0.25398599    -0.06930
C1605       C  0.55367167  0.47510852  0.26867787     0.13940
C1606       C  0.55250104  0.42757246  0.27452116    -0.20410
C1607       C  0.51793162  0.39962330  0.26052764    -0.06930
C1608       C  0.98403381  0.42600510  0.23979641     0.13930
C1609       C  0.95476962  0.40390600  0.20714339    -0.23760
H1610       H  0.95348106  0.49151147  0.22716321     0.15220
H1611       H  0.58115618  0.41147759  0.28848612     0.15250
C1612       C  0.59668623  0.49518812  0.27591514    -0.23710
H1613       H  0.95266532  0.42160659  0.17747500     0.05460
H1614       H  0.92066248  0.40612978  0.22229595     0.08690
H1615       H  0.96941366  0.36943752  0.19409945     0.08690
H1616       H  0.61011082  0.48818078  0.30800218     0.08670
H1617       H  0.59352943  0.53197749  0.27524420     0.08670
H1618       H  0.62019696  0.48018272  0.24835210     0.05450
C1619       C  0.97719403  0.18204999  0.29401286    -0.20360
C1620       C  0.00438820  0.15001263  0.26278835    -0.06930
C1621       C  0.52982967  0.17253364  0.23315105     0.13940
C1622       C  0.52492869  0.22187485  0.23394843    -0.20410
C1623       C  0.00042566  0.25449160  0.26769750    -0.06930
C1624       C  0.97522117  0.23091917  0.29710959     0.13930
C1625       C  0.94530677  0.25708320  0.33388991    -0.23760
H1626       H  0.95633712  0.16857104  0.31770348     0.15220
H1627       H  0.54022771  0.23409208  0.20628035     0.15250
C1628       C  0.56408622  0.14519919  0.20103355    -0.23710
H1629       H  0.96526566  0.28060596  0.35320694     0.05460
H1630       H  0.91631744  0.27496881  0.32051093     0.08690
H1631       H  0.93201680  0.23534289  0.35693590     0.08690
H1632       H  0.58694205  0.12368545  0.21886353     0.08670
H1633       H  0.58428529  0.16687248  0.18337870     0.08670
H1634       H  0.54738688  0.12418384  0.17558849     0.05450
C1635       C  0.43760670  0.30583847  0.95296469    -0.20360
C1636       C  0.41369566  0.33527879  0.98710014    -0.06930
C1637       C  0.91059935  0.31916455  0.02794967     0.13940
C1638       C  0.94866135  0.29507047  0.04134732    -0.20410
C1639       C  0.48267135  0.27510416  0.00885113    -0.06930
C1640       C  0.47665231  0.28076563  0.96368393     0.13930
C1641       C  0.51129483  0.26335715  0.92731597    -0.23760
H1642       H  0.43384415  0.31259524  0.91927624     0.15220
H1643       H  0.94894336  0.28652840  0.07488564     0.15250
C1644       C  0.87076674  0.33349877  0.05886407    -0.23710
H1645       H  0.51736143  0.29091774  0.90764367     0.05460
H1646       H  0.50037562  0.23457617  0.40571552     0.08690
H1647       H  0.54354554  0.25349990  0.94067885     0.08690
H1648       H  0.84195534  0.34508639  0.53981489     0.08670
H1649       H  0.87817679  0.36123781  0.08458577     0.08670
H1650       H  0.86135288  0.30421327  0.07429352     0.05450
C1651       C  0.99869795  0.12695226  0.50121182    -0.20360
C1652       C  0.99707333  0.16029112  0.53664804    -0.06930
C1653       C  0.52388889  0.15495123  0.07307612     0.13940
C1654       C  0.55140760  0.11428792  0.07247658    -0.20410
C1655       C  0.05543625  0.08190861  0.53434728    -0.06930
C1656       C  0.03131765  0.09168291  0.49763665     0.13930
C1657       C  0.03905397  0.06722606  0.45282736    -0.23760
H1658       H  0.97909786  0.13196697  0.47265177     0.15220
H1659       H  0.56866342  0.10743604  0.10168658     0.15250
C1660       C  0.52213125  0.19095620  0.11280111    -0.23710
H1661       H  0.04522712  0.09115024  0.42946336     0.05460
H1662       H  0.00824311  0.05280114  0.44333950     0.08690
H1663       H  0.06796988  0.04272820  0.45021407     0.08690
H1664       H  0.50115653  0.22202188  0.10814973     0.08670
H1665       H  0.55613867  0.20049120  0.61952813     0.08670
H1666       H  0.50726480  0.17824243  0.14191224     0.05450
C1667       C  0.80392174  0.05408977  0.99448843    -0.20360
C1668       C  0.79990802  0.01853549  0.46009559    -0.06930
C1669       C  0.83727848  0.49026740  0.44162926     0.13940
C1670       C  0.87775756  0.50063758  0.45584206    -0.20410
C1671       C  0.88153996  0.03152112  0.49381121    -0.06930
C1672       C  0.84404798  0.05672201  0.01510688     0.13930
C1673       C  0.84536119  0.08277865  0.06044194    -0.23760
H1674       H  0.77447612  0.07529963  0.00869379     0.15220
H1675       H  0.90601526  0.47964682  0.44031999     0.15250
C1676       C  0.83594210  0.44672755  0.41019043    -0.23710
H1677       H  0.81288835  0.10187458  0.07129968     0.05460
H1678       H  0.87129340  0.10592115  0.05961281     0.08690
H1679       H  0.85353080  0.05945010  0.08492620     0.08690
H1680       H  0.84728276  0.45148343  0.37615633     0.08670
H1681       H  0.80269088  0.43426471  0.40927356     0.08670
H1682       H  0.85796591  0.41932739  0.42142339     0.05450
C1683       C  0.64190726  0.93086503  0.43533787    -0.20360
C1684       C  0.64072775  0.39584976  0.96226522    -0.06930
C1685       C  0.67299351  0.39193496  0.99391439     0.13940
C1686       C  0.70419476  0.42309896  0.99827461    -0.20410
C1687       C  0.70036240  0.46132566  0.97621351    -0.06930
C1688       C  0.66670712  0.96702908  0.44681650     0.13930
C1689       C  0.65219227  0.01225715  0.43276543    -0.23760
H1690       H  0.61832089  0.93361445  0.40973867     0.15220
H1691       H  0.73056468  0.41825076  0.02062824     0.15250
C1692       C  0.67423232  0.35672039  0.02433780    -0.23710
H1693       H  0.64101143  0.03669985  0.46267232     0.05460
H1694       H  0.62541534  0.00902682  0.40924321     0.08690
H1695       H  0.67778990  0.02795578  0.41579095     0.08690
H1696       H  0.67291478  0.32294587  0.00483105     0.08670
H1697       H  0.64558824  0.36469032  0.04895626     0.08670
H1698       H  0.70500911  0.35596864  0.04315977     0.05450
C1699       C  0.53709208  0.04074026  0.35666968    -0.20360
C1700       C  0.00158109  0.01390438  0.35948268    -0.06930
C1701       C  0.96060776  0.52784700  0.34184653     0.13940
C1702       C  0.95830288  0.56590300  0.31990752    -0.20410
C1703       C  0.99605433  0.08842012  0.31375905    -0.06930
C1704       C  0.53284139  0.08037804  0.33831449     0.13930
C1705       C  0.56976391  0.11082292  0.34025419    -0.23760
H1706       H  0.56875028  0.03150592  0.36971278     0.15220
H1707       H  0.93067689  0.57187055  0.29966933     0.15250
C1708       C  0.92126818  0.50074196  0.34029615    -0.23710
H1709       H  0.59755213  0.09855689  0.35973703     0.05460
H1710       H  0.55620582  0.14486368  0.35649546     0.08690
H1711       H  0.58316648  0.11344495  0.30637475     0.08690
H1712       H  0.90812130  0.49952436  0.37409879     0.08670
H1713       H  0.93109744  0.46638301  0.32277403     0.08670
H1714       H  0.89362918  0.51580873  0.32233436     0.05450
C1715       C  0.56315851  0.52403764  0.17435454    -0.20360
C1716       C  0.02439374  0.55078544  0.19255951    -0.06930
C1717       C  0.98597992  0.04658502  0.16938913     0.13940
C1718       C  0.98126933  0.00529241  0.14436881    -0.20410
C1719       C  0.51741428  0.47259966  0.13407729    -0.06930
C1720       C  0.56027616  0.48552207  0.14320239     0.13930
C1721       C  0.60154594  0.46275948  0.11672149    -0.23760
H1722       H  0.59421129  0.52948927  0.18925525     0.15220
H1723       H  0.94873245  0.99937693  0.13242289     0.15250
C1724       C  0.94800219  0.08295738  0.17407261    -0.23710
H1725       H  0.63120862  0.48020772  0.12523836     0.05460
H1726       H  0.59758372  0.46335525  0.08076764     0.08690
H1727       H  0.60803473  0.42710150  0.12118550     0.08690
H1728       H  0.95423915  0.11265031  0.19795493     0.08670
H1729       H  0.91721249  0.06925942  0.18458231     0.08670
H1730       H  0.94300226  0.09424029  0.14118567     0.05450
Zn1731     Zn  0.55974962  0.95519462  0.96442405     1.49720
Zn1732     Zn  0.98729638  0.98206696  0.55269734     1.49360
Zn1733     Zn  0.96782462  0.45457300  0.96350368     1.49110
Zn1734     Zn  0.53143223  0.38910123  0.52357787     1.49480
O1735       O  0.51419792  0.94561968  0.49999280    -1.84180
O1736       O  0.58462698  0.00479912  0.00926544    -0.74810
O1737       O  0.92844089  0.01785733  0.55077838    -0.74630
O1738       O  0.97672756  0.45552327  0.89839764    -0.74150
O1739       O  0.03416665  0.02273769  0.56719419    -0.74830
O1740       O  0.54187101  0.97934165  0.91157785    -0.74420
O1741       O  0.95714208  0.51966654  0.98547207    -0.75010
O1742       O  0.47581984  0.36895208  0.50814111    -0.74400
O1743       O  0.97416771  0.93240182  0.58487774    -0.75160
O1744       O  0.92471906  0.41055653  0.97595043    -0.74550
O1745       O  0.54014644  0.40156340  0.58988594    -0.75010
O1746       O  0.58868119  0.35281952  0.49452354    -0.74920
O1747       O  0.56895548  0.88973396  0.94235271    -0.74710
C1748       C  0.06249773  0.03367347  0.03944059     0.77080
C1749       C  0.92464911  0.02775843  0.01261965     0.77570
C1750       C  0.00779719  0.97887314  0.88895310     0.76530
C1751       C  0.43776044  0.37527820  0.49206236     0.76910
C1752       C  0.50935651  0.43148801  0.60493407     0.78040
C1753       C  0.59956029  0.37357296  0.46302794     0.77090
C1754       C  0.01785247  0.55341194  0.74080404     0.00510
C1755       C  0.00672097  0.09645643  0.76858556     0.00510
C1756       C  0.73285992  0.49399632  0.48508293     0.00510
C1757       C  0.75678169  0.50659955  0.94684334     0.00510
C1758       C  0.97616123  0.20235565  0.02680633     0.00510
C1759       C  0.50780514  0.23347431  0.01845907     0.00510
C1760       C  0.52348912  0.34471001  0.76434413     0.00510
C1761       C  0.99339231  0.31047672  0.76863997     0.00510
Zn1762     Zn  0.80749549  0.22577020  0.76485589     1.49720
Zn1763     Zn  0.73116863  0.31106845  0.77939120     1.49360
Zn1764     Zn  0.71805514  0.21991090  0.71222651     1.49110
Zn1765     Zn  0.70509450  0.22531653  0.81319016     1.49480
O1766       O  0.74030403  0.24505471  0.76858259    -1.84180
O1767       O  0.83651849  0.28013411  0.76485873    -0.74810
O1768       O  0.68510772  0.32370532  0.73911193    -0.74630
O1769       O  0.76289824  0.17015293  0.71319706    -0.74150
O1770       O  0.78511907  0.33764156  0.76143158    -0.74830
O1771       O  0.82884390  0.18859434  0.70452088    -0.74420
O1772       O  0.71705270  0.27771210  0.68097353    -0.75010
O1773       O  0.66781528  0.18327344  0.77778692    -0.74400
O1774       O  0.71815067  0.33553579  0.84445111    -0.75160
O1775       O  0.66494619  0.18477947  0.70740008    -0.74550
O1776       O  0.67295984  0.28455092  0.83672987    -0.75010
O1777       O  0.75828333  0.20416082  0.84540143    -0.74920
O1778       O  0.82540743  0.19547364  0.81697344    -0.74710
C1779       C  0.82512075  0.32054388  0.75921303     0.77080
C1780       C  0.70148114  0.31731468  0.69941370     0.77570
C1781       C  0.79444628  0.17454814  0.68758360     0.76530
C1782       C  0.64887860  0.19871267  0.74598155     0.76910
C1783       C  0.69655460  0.30790663  0.86175358     0.78040
C1784       C  0.78953610  0.17855554  0.82356151     0.77090
C1785       C  0.72311863  0.21537331  0.52950404     0.00510
C1786       C  0.76313409  0.21972351  0.00170179     0.00510
C1787       C  0.74489826  0.49231667  0.69083559     0.00510
C1788       C  0.75182977  0.01371552  0.73558098     0.00510
C1789       C  0.73604803  0.12534563  0.79684790    -0.20360
C1790       C  0.77922714  0.13815335  0.79387745    -0.06930
C1791       C  0.81116383  0.11168353  0.76329088     0.13940
C1792       C  0.79765175  0.07586504  0.73376729    -0.20410
C1793       C  0.75489145  0.06232578  0.73912181    -0.06930
C1794       C  0.72278427  0.08943498  0.76826946     0.13930
C1795       C  0.67620168  0.07636720  0.77471939    -0.23760
H1796       H  0.71278684  0.14211949  0.82320662     0.15220
H1797       H  0.82251494  0.05335132  0.71288261     0.15250
C1798       C  0.86012141  0.11549389  0.76710577    -0.23710
H1799       H  0.65177597  0.10347751  0.76695628     0.05460
H1800       H  0.67001489  0.07044869  0.80962556     0.08690
H1801       H  0.67039022  0.04538001  0.75246884     0.08690
H1802       H  0.86797358  0.11663539  0.80256468     0.08670
H1803       H  0.87049037  0.14605976  0.75475246     0.08670
H1804       H  0.87991257  0.08566029  0.74848860     0.05450
C1805       C  0.75570911  0.36651073  0.67639307    -0.20360
C1806       C  0.71091411  0.35815713  0.68058964    -0.06930
C1807       C  0.67791670  0.39485166  0.68367619     0.13940
C1808       C  0.69020083  0.43813626  0.68376884    -0.20410
C1809       C  0.73454197  0.44617693  0.68595828    -0.06930
C1810       C  0.76807824  0.41063219  0.68053043     0.13930
C1811       C  0.81627059  0.41972253  0.68229948    -0.23760
H1812       H  0.78072054  0.33929223  0.67695152     0.15220
H1813       H  0.66501693  0.46623869  0.68726231     0.15250
C1814       C  0.62999169  0.38908621  0.69088152    -0.23710
H1815       H  0.83431099  0.40612406  0.65017365     0.05460
H1816       H  0.83089747  0.40551663  0.71012682     0.08690
H1817       H  0.82173857  0.45580798  0.68924091     0.08690
H1818       H  0.62449832  0.37600177  0.72253795     0.08670
H1819       H  0.62093998  0.36597920  0.66217421     0.08670
H1820       H  0.60823952  0.42109475  0.69345936     0.05450
C1821       C  0.75982294  0.23719426  0.59671954    -0.20360
C1822       C  0.73418857  0.20687519  0.57347607    -0.06930
C1823       C  0.72699445  0.16624166  0.58863445     0.13940
C1824       C  0.75127203  0.15372707  0.62381444    -0.20410
C1825       C  0.78161321  0.18184298  0.64385965    -0.06930
C1826       C  0.78519762  0.22413847  0.63052392     0.13930
C1827       C  0.81617801  0.25541443  0.65062749    -0.23760
H1828       H  0.76363212  0.26929603  0.58513487     0.15220
H1829       H  0.74603289  0.12257805  0.63649766     0.15250
C1830       C  0.69314995  0.13731260  0.56865463    -0.23710
H1831       H  0.81748745  0.28333136  0.63079975     0.05460
H1832       H  0.84994046  0.23805289  0.64992302     0.08690
H1833       H  0.80478719  0.26803514  0.68541717     0.08690
H1834       H  0.70258702  0.12452561  0.53320809     0.08670
H1835       H  0.65988142  0.15671207  0.57184242     0.08670
H1836       H  0.68999390  0.10892174  0.58708341     0.05450
C1837       C  0.69785491  0.24813315  0.90886249    -0.20360
C1838       C  0.71015215  0.29114909  0.90291928    -0.06930
C1839       C  0.74169669  0.31079168  0.93080518     0.13940
C1840       C  0.75685698  0.28802274  0.96534813    -0.20410
C1841       C  0.74948499  0.24268748  0.96514634    -0.06930
C1842       C  0.72301561  0.22147295  0.93410345     0.13930
C1843       C  0.72659146  0.17048172  0.92352288    -0.23760
H1844       H  0.67478918  0.23174530  0.88782295     0.15220
H1845       H  0.77788341  0.30373763  0.98976924     0.15250
C1846       C  0.76204951  0.35302637  0.92281144    -0.23710
H1847       H  0.75826669  0.15866661  0.90464884     0.05460
H1848       H  0.69902342  0.15872683  0.90329711     0.08690
H1849       H  0.72845464  0.15347647  0.95358067     0.08690
H1850       H  0.73580885  0.38018921  0.91898727     0.08670
H1851       H  0.78399484  0.34602702  0.89199217     0.08670
H1852       H  0.78274482  0.36519090  0.95051750     0.05450
C1853       C  0.58145333  0.30501401  0.79932772    -0.20360
C1854       C  0.56827793  0.32319853  0.76127157    -0.06930
C1855       C  0.58476593  0.30274175  0.71872987     0.13940
C1856       C  0.61579810  0.26520439  0.71560478    -0.20410
C1857       C  0.62303704  0.24275929  0.75284900    -0.06930
C1858       C  0.60166264  0.26095287  0.79421973     0.13930
C1859       C  0.59362623  0.23237041  0.83034455    -0.23760
H1860       H  0.56531797  0.31951648  0.83127568     0.15220
H1861       H  0.62857842  0.24949360  0.68291377     0.15250
C1862       C  0.56099509  0.31226035  0.67746135    -0.23710
H1863       H  0.57526317  0.25231640  0.85975422     0.05460
H1864       H  0.62464924  0.21704524  0.84185143     0.08690
H1865       H  0.57358157  0.20494688  0.81731574     0.08690
H1866       H  0.52817591  0.29871756  0.67718539     0.08670
H1867       H  0.58005004  0.29584352  0.64703596     0.08670
H1868       H  0.55427075  0.34889985  0.67640927     0.05450
C1869       C  0.87779054  0.36751179  0.78911054    -0.20360
C1870       C  0.86081480  0.34668750  0.75015216    -0.06930
C1871       C  0.89073567  0.32565881  0.71515004     0.13940
C1872       C  0.93182720  0.30919709  0.72529490    -0.20410
C1873       C  0.94814216  0.32574380  0.76532646    -0.06930
C1874       C  0.92256060  0.35755648  0.79707603     0.13930
C1875       C  0.94099210  0.37806451  0.83961119    -0.23760
H1876       H  0.85518254  0.38555759  0.81553791     0.15220
H1877       H  0.95345380  0.28845278  0.69948820     0.15250
C1878       C  0.88400607  0.32590144  0.66693324    -0.23710
H1879       H  0.91551088  0.40137681  0.86042126     0.05460
H1880       H  0.96911816  0.39716515  0.83215639     0.08690
H1881       H  0.95319313  0.35223034  0.85972636     0.08690
H1882       H  0.84990342  0.33723172  0.66128505     0.08670
H1883       H  0.89399769  0.29221612  0.64780254     0.08670
H1884       H  0.90558973  0.34940304  0.65381350     0.05450
C1885       C  0.90147539  0.21439870  0.98017232    -0.20360
C1886       C  0.92174694  0.20527223  0.01999586    -0.06930
C1887       C  0.88903595  0.19363387  0.55092344     0.13940
C1888       C  0.84120922  0.19441572  0.54273840    -0.20410
C1889       C  0.81890819  0.21161860  0.00679441    -0.06930
C1890       C  0.85342657  0.21803504  0.97323785     0.13930
C1891       C  0.84216727  0.22312639  0.92620032    -0.23760
H1892       H  0.92406288  0.21701428  0.95244323     0.15220
H1893       H  0.82170360  0.17746703  0.56380221     0.15250
C1894       C  0.90478494  0.17866884  0.59344892    -0.23710
H1895       H  0.87174336  0.21505701  0.90267722     0.05460
H1896       H  0.82965503  0.25827676  0.92352430     0.08690
H1897       H  0.81846490  0.19896050  0.91428991     0.08690
H1898       H  0.92116515  0.20598573  0.61273900     0.08670
H1899       H  0.92856711  0.14801821  0.58615342     0.08670
H1900       H  0.87705228  0.16978060  0.61447956     0.05450
C1901       C  0.58756880  0.25737452  0.55019248    -0.20360
C1902       C  0.56333775  0.22880337  0.51996639    -0.06930
C1903       C  0.59471656  0.19842401  0.98984672     0.13940
C1904       C  0.64314102  0.19464971  0.99364245    -0.20410
C1905       C  0.66806887  0.22381335  0.52287831    -0.06930
C1906       C  0.63670229  0.25482748  0.55246305     0.13930
C1907       C  0.65472595  0.28460658  0.58963042    -0.23760
H1908       H  0.56750592  0.28241024  0.57336058     0.15220
H1909       H  0.66067719  0.16586192  0.97392921     0.15250
C1910       C  0.57961658  0.17055171  0.94990478    -0.23710
H1911       H  0.63194036  0.31558062  0.59950223     0.05460
H1912       H  0.68724463  0.29519430  0.57967654     0.08690
H1913       H  0.65911968  0.26592231  0.61828804     0.08690
H1914       H  0.54299179  0.17310683  0.94835108     0.08670
H1915       H  0.59361134  0.13529782  0.95002879     0.08670
H1916       H  0.59362686  0.18209986  0.91957057     0.05450
C1917       C  0.73257780  0.47039878  0.86132369    -0.20360
C1918       C  0.75393993  0.00287787  0.89132330    -0.06930
C1919       C  0.77812654  0.03078372  0.86545175     0.13940
C1920       C  0.78183673  0.02461099  0.81736432    -0.20410
C1921       C  0.75534444  0.99908170  0.78710453    -0.06930
C1922       C  0.73139842  0.46939340  0.81222343     0.13930
C1923       C  0.70654201  0.43401215  0.78806265    -0.23760
H1924       H  0.71698578  0.44462605  0.87579845     0.15220
H1925       H  0.80658504  0.04253423  0.80334568     0.15250
C1926       C  0.80095044  0.06996429  0.88730258    -0.23710
H1927       H  0.68929966  0.41455421  0.81086354     0.05460
H1928       H  0.72997656  0.41009864  0.76559272     0.08690
H1929       H  0.68125955  0.45027000  0.76925434     0.08690
H1930       H  0.78132320  0.08699054  0.91738947     0.08670
H1931       H  0.80401012  0.09584718  0.86500096     0.08670
H1932       H  0.83529845  0.05872622  0.89516846     0.05450
C1933       C  0.70816647  0.02387395  0.57121941    -0.20360
C1934       C  0.74210543  0.50274293  0.53884331    -0.06930
C1935       C  0.77906224  0.48259238  0.56039252     0.13940
C1936       C  0.78205322  0.48722896  0.60860761    -0.20410
C1937       C  0.74796634  0.50794657  0.64123494    -0.06930
C1938       C  0.71118853  0.02800296  0.61987594     0.13930
C1939       C  0.67476610  0.05581070  0.64917902    -0.23760
H1940       H  0.67763960  0.03732465  0.55827352     0.15220
H1941       H  0.81153945  0.47100835  0.62038578     0.15250
C1942       C  0.81396375  0.44973349  0.53417074    -0.23710
H1943       H  0.64587725  0.06611415  0.63010266     0.05460
H1944       H  0.68769619  0.08651084  0.66635086     0.08690
H1945       H  0.66328061  0.53677675  0.67522186     0.08690
H1946       H  0.84720831  0.96275762  0.53648379     0.08670
H1947       H  0.80611321  0.44140809  0.49903797     0.08670
H1948       H  0.81534265  0.41771817  0.54835670     0.05450
C1949       C  0.98197871  0.47487501  0.74108065    -0.20360
C1950       C  0.51680848  0.50206682  0.75408326    -0.06930
C1951       C  0.55371872  0.47511812  0.76877787     0.13940
C1952       C  0.55254167  0.42757859  0.77458680    -0.20410
C1953       C  0.51798564  0.39963344  0.76054912    -0.06930
C1954       C  0.98412170  0.42596450  0.73979733     0.13930
C1955       C  0.95490874  0.40386261  0.70707438    -0.23760
H1956       H  0.95359825  0.49148332  0.72716083     0.15220
H1957       H  0.58118420  0.41147847  0.78856697     0.15250
C1958       C  0.59673690  0.49518513  0.77605454    -0.23710
H1959       H  0.95277400  0.42162851  0.67745244     0.05460
H1960       H  0.92079427  0.40598246  0.72217885     0.08690
H1961       H  0.96961874  0.36943091  0.69397226     0.08690
H1962       H  0.61015006  0.48814319  0.80813618     0.08670
H1963       H  0.59357747  0.53197951  0.77542414     0.08670
H1964       H  0.62026652  0.48020616  0.74849005     0.05450
C1965       C  0.97723367  0.18205256  0.79403759    -0.20360
C1966       C  0.00446651  0.15002067  0.76285246    -0.06930
C1967       C  0.52993666  0.17256454  0.73320007     0.13940
C1968       C  0.52504331  0.22189474  0.73398192    -0.20410
C1969       C  0.00048864  0.25446639  0.76770405    -0.06930
C1970       C  0.97522906  0.23091482  0.79708861     0.13930
C1971       C  0.94520354  0.25709327  0.83377131    -0.23760
H1972       H  0.95635936  0.16857240  0.81771324     0.15220
H1973       H  0.54036255  0.23410082  0.70631872     0.15250
C1974       C  0.56414826  0.14521645  0.70104352    -0.23710
H1975       H  0.96510547  0.28062899  0.85314707     0.05460
H1976       H  0.91627112  0.27496339  0.82028619     0.08690
H1977       H  0.93181705  0.23537089  0.85678487     0.08690
H1978       H  0.58700406  0.12366148  0.71883337     0.08670
H1979       H  0.58434746  0.16687866  0.68337444     0.08670
H1980       H  0.54739751  0.12425077  0.67560551     0.05450
C1981       C  0.43768304  0.30607568  0.45300620    -0.20360
C1982       C  0.41368144  0.33550057  0.48709139    -0.06930
C1983       C  0.91059969  0.31943559  0.52795317     0.13940
C1984       C  0.94868010  0.29543529  0.54143370    -0.20410
C1985       C  0.48275104  0.27547955  0.50897050    -0.06930
C1986       C  0.47676790  0.28110762  0.46378668     0.13930
C1987       C  0.51145305  0.26371849  0.42744988    -0.23760
H1988       H  0.43390372  0.31274891  0.41929774     0.15220
H1989       H  0.94887388  0.28681305  0.57494503     0.15250
C1990       C  0.87035076  0.33299411  0.55848203    -0.23710
H1991       H  0.51746410  0.29124684  0.40771620     0.05460
H1992       H  0.50014440  0.23428627  0.90553662     0.08690
H1993       H  0.54371797  0.25397412  0.44084529     0.08690
H1994       H  0.84208619  0.34501548  0.04025782     0.08670
H1995       H  0.87740044  0.36017861  0.58493142     0.08670
H1996       H  0.86070359  0.30322076  0.57296978     0.05450
C1997       C  0.99870833  0.12660183  0.00116668    -0.20360
C1998       C  0.99706984  0.15994450  0.03659456    -0.06930
C1999       C  0.52382621  0.15523625  0.57313880     0.13940
C2000       C  0.55126962  0.11453812  0.57256696    -0.20410
C2001       C  0.05559035  0.08165693  0.03422651    -0.06930
C2002       C  0.03141766  0.09141475  0.99754525     0.13930
C2003       C  0.03914467  0.06698273  0.95272822    -0.23760
H2004       H  0.97906450  0.13158021  0.97262711     0.15220
H2005       H  0.56851141  0.10767928  0.60178051     0.15250
C2006       C  0.52208701  0.19122423  0.61287817    -0.23710
H2007       H  0.04514291  0.09095131  0.92936387     0.05460
H2008       H  0.00838148  0.05243652  0.94330519     0.08690
H2009       H  0.06815417  0.04259266  0.95005429     0.08690
H2010       H  0.50111794  0.22230045  0.60824678     0.08670
H2011       H  0.55617584  0.20024231  0.11945461     0.08670
H2012       H  0.50723706  0.17849401  0.64199059     0.05450
C2013       C  0.80362043  0.05427383  0.49443615    -0.20360
C2014       C  0.80014274  0.01839556  0.96011333    -0.06930
C2015       C  0.83722758  0.48995767  0.94155206     0.13940
C2016       C  0.87772765  0.50027396  0.95574404    -0.20410
C2017       C  0.88178927  0.03110723  0.99391788    -0.06930
C2018       C  0.84375136  0.05704212  0.51501362     0.13930
C2019       C  0.84501924  0.08313176  0.56033336    -0.23760
H2020       H  0.77413513  0.07541658  0.50864677     0.15220
H2021       H  0.90596835  0.47921168  0.94026712     0.15250
C2022       C  0.83582918  0.44641789  0.91013230    -0.23710
H2023       H  0.81253509  0.10220866  0.57113558     0.05460
H2024       H  0.87093506  0.10629007  0.55950697     0.08690
H2025       H  0.85316664  0.05983339  0.58485006     0.08690
H2026       H  0.84712460  0.45116812  0.87608121     0.08670
H2027       H  0.80256245  0.43398741  0.90927035     0.08670
H2028       H  0.85786140  0.41900524  0.92133944     0.05450
C2029       C  0.64231956  0.93070065  0.93504660    -0.20360
C2030       C  0.64071713  0.39606496  0.46235438    -0.06930
C2031       C  0.67298754  0.39215622  0.49399923     0.13940
C2032       C  0.70422402  0.42328247  0.49830461    -0.20410
C2033       C  0.70039620  0.46150310  0.47623256    -0.06930
C2034       C  0.66696574  0.96694866  0.94669657     0.13930
C2035       C  0.65241429  0.01217558  0.93266226    -0.23760
H2036       H  0.61885009  0.93339379  0.90933215     0.15220
H2037       H  0.73061282  0.41841931  0.52063623     0.15250
C2038       C  0.67418875  0.35699690  0.52448163    -0.23710
H2039       H  0.64115504  0.03658121  0.96256994     0.05460
H2040       H  0.62568754  0.00891518  0.90908824     0.08690
H2041       H  0.67801214  0.02795225  0.91577251     0.08690
H2042       H  0.67283775  0.32320701  0.50501984     0.08670
H2043       H  0.64554495  0.36503602  0.54909202     0.08670
H2044       H  0.70496074  0.35624244  0.54331101     0.05450
C2045       C  0.53745584  0.04069288  0.85656656    -0.20360
C2046       C  0.00186364  0.01382939  0.85942845    -0.06930
C2047       C  0.96057307  0.52781667  0.84191023     0.13940
C2048       C  0.95830828  0.56587044  0.81995896    -0.20410
C2049       C  0.99625806  0.08844782  0.81386112    -0.06930
C2050       C  0.53317979  0.08037169  0.83828476     0.13930
C2051       C  0.57013013  0.11077436  0.84014890    -0.23760
H2052       H  0.56913956  0.03141860  0.86953596     0.15220
H2053       H  0.93069872  0.57185470  0.79969688     0.15250
C2054       C  0.92122048  0.50073132  0.84033776    -0.23710
H2055       H  0.59796785  0.09845690  0.85954302     0.05460
H2056       H  0.55662579  0.14480610  0.85645007     0.08690
H2057       H  0.58343165  0.11343198  0.80624278     0.08690
H2058       H  0.90809268  0.49945029  0.87413541     0.08670
H2059       H  0.93103300  0.46639707  0.82275203     0.08670
H2060       H  0.89357570  0.51584826  0.82241814     0.05450
C2061       C  0.56322951  0.52393221  0.67451775    -0.20360
C2062       C  0.02456601  0.55075359  0.69268293    -0.06930
C2063       C  0.98573241  0.04699887  0.66954875     0.13940
C2064       C  0.98069086  0.00576586  0.64458572    -0.20410
C2065       C  0.51731092  0.47270802  0.63419386    -0.06930
C2066       C  0.56023122  0.48543443  0.64338005     0.13930
C2067       C  0.60146142  0.46251851  0.61693163    -0.23760
H2068       H  0.59428913  0.52924268  0.68945930     0.15220
H2069       H  0.94808387  0.00009129  0.63268343     0.15250
C2070       C  0.94808991  0.08372284  0.67409775    -0.23710
H2071       H  0.63119540  0.47983453  0.62548225     0.05460
H2072       H  0.59756954  0.46315706  0.58096784     0.08690
H2073       H  0.60777876  0.42684309  0.62140129     0.08690
H2074       H  0.95458790  0.11338258  0.69788384     0.08670
H2075       H  0.91709191  0.07042494  0.68463180     0.08670
H2076       H  0.94328715  0.09493463  0.64115267     0.05450
Zn2077     Zn  0.55925517  0.45533647  0.46460225     1.49720
Zn2078     Zn  0.98719498  0.48158287  0.05257226     1.49360
Zn2079     Zn  0.96788609  0.95484833  0.46360837     1.49110
Zn2080     Zn  0.53226205  0.88872309  0.02327433     1.49480
O2081       O  0.51422261  0.44524649  0.99977255    -1.84180
O2082       O  0.58444934  0.50484112  0.50931595    -0.74810
O2083       O  0.92827354  0.51713892  0.05060475    -0.74630
O2084       O  0.97683138  0.95566278  0.39847982    -0.74150
O2085       O  0.03375406  0.52260625  0.06694751    -0.74830
O2086       O  0.54152332  0.47936138  0.41162072    -0.74420
O2087       O  0.95725513  0.01994949  0.48554044    -0.75010
O2088       O  0.47645465  0.86871605  0.00810741    -0.74400
O2089       O  0.97425922  0.43203562  0.08499477    -0.75160
O2090       O  0.92476750  0.91084229  0.47602573    -0.74550
O2091       O  0.54154045  0.90151441  0.08948247    -0.75010
O2092       O  0.58929819  0.85233720  0.99383449    -0.74920
O2093       O  0.56846874  0.38984791  0.44273046    -0.74710
C2094       C  0.06242639  0.53375310  0.53951881     0.77080
C2095       C  0.92436986  0.52834358  0.51251198     0.77570
C2096       C  0.00746920  0.47892667  0.38895992     0.76530
C2097       C  0.43835451  0.87511877  0.99210493     0.76910
C2098       C  0.51051327  0.93108425  0.10475927     0.78040
C2099       C  0.60010011  0.87334059  0.96250362     0.77090
C2100       C  0.01789073  0.05338776  0.24071862     0.00510
C2101       C  0.00660632  0.59645883  0.26850604     0.00510
C2102       C  0.73318463  0.99398231  0.98496207     0.00510
C2103       C  0.75696546  0.00682240  0.44676063     0.00510
C2104       C  0.97613916  0.70250527  0.52664472     0.00510
C2105       C  0.50780696  0.73362227  0.51829613     0.00510
C2106       C  0.52360505  0.84464449  0.26422265     0.00510
C2107       C  0.99348009  0.81048404  0.26858819     0.00510
Zn2108     Zn  0.80760637  0.72595807  0.26485671     1.49720
Zn2109     Zn  0.73122638  0.81119101  0.27912637     1.49360
Zn2110     Zn  0.71831109  0.72000573  0.21198987     1.49110
Zn2111     Zn  0.70514788  0.72544633  0.31294958     1.49480
O2112       O  0.74041247  0.74520030  0.26840945    -1.84180
O2113       O  0.83660480  0.78036579  0.26505218    -0.74810
O2114       O  0.68515960  0.82371808  0.23880614    -0.74630
O2115       O  0.76317799  0.67029664  0.21314570    -0.74150
O2116       O  0.78519449  0.83775052  0.26115071    -0.74830
O2117       O  0.82908942  0.68885165  0.20453652    -0.74420
O2118       O  0.71732046  0.77779824  0.18073139    -0.75010
O2119       O  0.66810679  0.68331567  0.27734657    -0.74400
O2120       O  0.71816205  0.83567265  0.34417724    -0.75160
O2121       O  0.66520864  0.68486747  0.20697170    -0.74550
O2122       O  0.67297205  0.78467559  0.33647112    -0.75010
O2123       O  0.75828407  0.70437016  0.34523335    -0.74920
O2124       O  0.82543576  0.69547057  0.31688327    -0.74710
C2125       C  0.82520784  0.82071888  0.25920503     0.77080
C2126       C  0.70159837  0.81736758  0.19913404     0.77570
C2127       C  0.79474822  0.67470555  0.18756487     0.76530
C2128       C  0.64912174  0.69872900  0.24556062     0.76910
C2129       C  0.69656303  0.80805002  0.36149096     0.78040
C2130       C  0.78950881  0.67865431  0.32347721     0.77090
C2131       C  0.72351931  0.71523732  0.02934461     0.00510
C2132       C  0.76309524  0.71990299  0.50153845     0.00510
C2133       C  0.74514703  0.99237166  0.19075129     0.00510
C2134       C  0.75151729  0.51378392  0.23570857     0.00510
C2135       C  0.73594784  0.62545244  0.29693797    -0.20360
C2136       C  0.77913929  0.63821142  0.29388506    -0.06930
C2137       C  0.81101805  0.61167130  0.26329083     0.13940
C2138       C  0.79743367  0.57585182  0.23381996    -0.20410
C2139       C  0.75465252  0.56238241  0.23923299    -0.06930
C2140       C  0.72260775  0.58954511  0.26840838     0.13930
C2141       C  0.67600689  0.57655052  0.27492800    -0.23760
H2142       H  0.71270796  0.64231041  0.32327871     0.15220
H2143       H  0.82225348  0.55329259  0.21292574     0.15250
C2144       C  0.85998640  0.61541920  0.26704513    -0.23710
H2145       H  0.65160421  0.60370336  0.26721554     0.05460
H2146       H  0.66986091  0.57062792  0.30983895     0.08690
H2147       H  0.67011917  0.54558833  0.25267747     0.08690
H2148       H  0.86786538  0.61657345  0.30249805     0.08670
H2149       H  0.87038618  0.64595403  0.25465875     0.08670
H2150       H  0.87972262  0.58555611  0.24842143     0.05450
C2151       C  0.75579216  0.86655469  0.17607895    -0.20360
C2152       C  0.71099652  0.85824328  0.18035540    -0.06930
C2153       C  0.67801835  0.89497282  0.18357242     0.13940
C2154       C  0.69034519  0.93826334  0.18378070    -0.20410
C2155       C  0.73471301  0.94624795  0.18588957    -0.06930
C2156       C  0.76820713  0.91066146  0.18031589     0.13930
C2157       C  0.81641455  0.91968478  0.18204077    -0.23760
H2158       H  0.78078183  0.83927710  0.17647395     0.15220
H2159       H  0.66518524  0.96639630  0.18739219     0.15250
C2160       C  0.63007177  0.88921611  0.19072745    -0.23710
H2161       H  0.83440928  0.90609621  0.14988607     0.05460
H2162       H  0.83104298  0.90541822  0.20982765     0.08690
H2163       H  0.82193869  0.95575129  0.18904763     0.08690
H2164       H  0.62454168  0.87606247  0.22234230     0.08670
H2165       H  0.62099463  0.86617897  0.16196820     0.08670
H2166       H  0.60833798  0.92124229  0.19334665     0.05450
C2167       C  0.76020383  0.73715379  0.09654675    -0.20360
C2168       C  0.73458703  0.70679866  0.07333397    -0.06930
C2169       C  0.72737898  0.66620286  0.08856233     0.13940
C2170       C  0.75162952  0.65375484  0.12378580    -0.20410
C2171       C  0.78196472  0.68189975  0.14379899    -0.06930
C2172       C  0.78556483  0.72415632  0.13038327     0.13930
C2173       C  0.81658381  0.75542950  0.15040395    -0.23760
H2174       H  0.76401897  0.76922935  0.08490891     0.15220
H2175       H  0.74636010  0.62264325  0.13653516     0.15250
C2176       C  0.69353452  0.63725332  0.06862512    -0.23710
H2177       H  0.81789571  0.78329636  0.13051532     0.05460
H2178       H  0.85033808  0.73803321  0.14967877     0.08690
H2179       H  0.80523670  0.76813707  0.18519235     0.08690
H2180       H  0.70296120  0.62442506  0.03318574     0.08670
H2181       H  0.66026440  0.65664805  0.07180579     0.08670
H2182       H  0.69039331  0.60889416  0.08709559     0.05450
C2183       C  0.69779763  0.74834450  0.40867896    -0.20360
C2184       C  0.71014697  0.79132570  0.40268452    -0.06930
C2185       C  0.74172472  0.81094783  0.43054622     0.13940
C2186       C  0.75686302  0.78819752  0.46511807    -0.20410
C2187       C  0.74941992  0.74288682  0.46498301    -0.06930
C2188       C  0.72291984  0.72168841  0.43395567     0.13930
C2189       C  0.72646899  0.67070232  0.42338288    -0.23760
H2190       H  0.67471095  0.73197082  0.38765546     0.15220
H2191       H  0.77792101  0.80390387  0.48951211     0.15250
C2192       C  0.76212312  0.85314585  0.42250406    -0.23710
H2193       H  0.69885284  0.65895614  0.40322424     0.05460
H2194       H  0.72840035  0.65369967  0.45343713     0.08690
H2195       H  0.75811382  0.65887783  0.40445838     0.08690
H2196       H  0.73590196  0.88033558  0.41869910     0.08670
H2197       H  0.78403620  0.84610996  0.39166340     0.08670
H2198       H  0.78286290  0.86529227  0.45017943     0.05450
C2199       C  0.58158544  0.80485490  0.29908502    -0.20360
C2200       C  0.56838835  0.82312200  0.26107993    -0.06930
C2201       C  0.58486123  0.80275058  0.21850335     0.13940
C2202       C  0.61589933  0.76521507  0.21529418    -0.20410
C2203       C  0.62318374  0.74270915  0.25248681    -0.06930
C2204       C  0.60181237  0.76080105  0.29388566     0.13930
C2205       C  0.59382199  0.73212666  0.32994963    -0.23760
H2206       H  0.56546507  0.81929113  0.33105855     0.15220
H2207       H  0.62867288  0.74956765  0.18257955     0.15250
C2208       C  0.56108069  0.81234432  0.17727036    -0.23710
H2209       H  0.57537429  0.75197899  0.35936884     0.05460
H2210       H  0.62487080  0.71685457  0.34145847     0.08690
H2211       H  0.57386764  0.70465127  0.31685359     0.08690
H2212       H  0.55429857  0.84899827  0.17632655     0.08670
H2213       H  0.52830681  0.79869779  0.17693752     0.08670
H2214       H  0.58019049  0.79607362  0.14681974     0.05450
C2215       C  0.87792927  0.86765140  0.28910032    -0.20360
C2216       C  0.86092306  0.84684111  0.25014946    -0.06930
C2217       C  0.89082518  0.82575412  0.21515684     0.13940
C2218       C  0.93189548  0.80924682  0.22530071    -0.20410
C2219       C  0.94823782  0.82579582  0.26531166    -0.06930
C2220       C  0.92269717  0.85764796  0.29705665     0.13930
C2221       C  0.94116182  0.87812708  0.33958750    -0.23760
H2222       H  0.85534121  0.88572986  0.31552803     0.15220
H2223       H  0.95350278  0.78847373  0.19949433     0.15250
C2224       C  0.88413465  0.82602891  0.16694309    -0.23710
H2225       H  0.91569576  0.90143897  0.36041953     0.05460
H2226       H  0.96930034  0.89721584  0.33213942     0.08690
H2227       H  0.95336833  0.85227283  0.35967536     0.08690
H2228       H  0.85001546  0.83725892  0.16127729     0.08670
H2229       H  0.89423825  0.79237953  0.14778335     0.08670
H2230       H  0.90564932  0.84961364  0.15387636     0.05450
C2231       C  0.90144033  0.71465808  0.48002286    -0.20360
C2232       C  0.92172057  0.70544924  0.51982079    -0.06930
C2233       C  0.88940536  0.69348541  0.05080243     0.13940
C2234       C  0.84157931  0.69429862  0.04261076    -0.20410
C2235       C  0.81887498  0.71179319  0.50661371    -0.06930
C2236       C  0.85338955  0.71827992  0.47308393     0.13930
C2237       C  0.84213195  0.72337826  0.42604851    -0.23760
H2238       H  0.92401942  0.71732626  0.45230469     0.15220
H2239       H  0.82205438  0.67738010  0.06368588     0.15250
C2240       C  0.90513284  0.67844186  0.09330289    -0.23710
H2241       H  0.87168654  0.71516268  0.40251217     0.05460
H2242       H  0.82975466  0.75856425  0.42335514     0.08690
H2243       H  0.81832797  0.69930806  0.41417046     0.08690
H2244       H  0.92157535  0.70570115  0.11261146     0.08670
H2245       H  0.92885255  0.64774549  0.08596564     0.08670
H2246       H  0.87737823  0.66959566  0.11433490     0.05450
C2247       C  0.58798547  0.75726743  0.05001877    -0.20360
C2248       C  0.56374808  0.72861275  0.01988290    -0.06930
C2249       C  0.59469694  0.69849275  0.48974770     0.13940
C2250       C  0.64311878  0.69471566  0.49353790    -0.20410
C2251       C  0.66847179  0.72365816  0.02273107    -0.06930
C2252       C  0.63711608  0.75473121  0.05227256     0.13930
C2253       C  0.65514309  0.78454218  0.08941687    -0.23760
H2254       H  0.56792747  0.78235325  0.07313731     0.15220
H2255       H  0.66064602  0.66588269  0.47388065     0.15250
C2256       C  0.57957753  0.67052984  0.44987320    -0.23710
H2257       H  0.63233311  0.81549207  0.09934309     0.05460
H2258       H  0.68763179  0.79516691  0.07942081     0.08690
H2259       H  0.65960545  0.76585006  0.11806022     0.08690
H2260       H  0.54295398  0.67313314  0.44830163     0.08670
H2261       H  0.59351109  0.63527635  0.45012238     0.08670
H2262       H  0.59362608  0.68195270  0.41948886     0.05450
C2263       C  0.73273896  0.97059222  0.36126611    -0.20360
C2264       C  0.75359110  0.50291548  0.39144549    -0.06930
C2265       C  0.77774501  0.53085802  0.36558952     0.13940
C2266       C  0.78146892  0.52469323  0.31750703    -0.20410
C2267       C  0.75500326  0.49914839  0.28723492    -0.06930
C2268       C  0.73158062  0.96954495  0.31216024     0.13930
C2269       C  0.70667318  0.93419757  0.28801647    -0.23760
H2270       H  0.71709985  0.94486302  0.37576477     0.15220
H2271       H  0.80619854  0.54264735  0.30350303     0.15250
C2272       C  0.80050480  0.57008109  0.38744873    -0.23710
H2273       H  0.68941397  0.91476492  0.31082877     0.05460
H2274       H  0.73006797  0.91025776  0.26552292     0.08690
H2275       H  0.68139893  0.95049823  0.26923169     0.08690
H2276       H  0.78082751  0.58710678  0.41750621     0.08670
H2277       H  0.80357333  0.59594578  0.36512920     0.08670
H2278       H  0.83485248  0.55889562  0.39535524     0.05450
C2279       C  0.70797364  0.52386332  0.07130136    -0.20360
C2280       C  0.74240350  0.00271648  0.03873146    -0.06930
C2281       C  0.77934187  0.98255443  0.06029585     0.13940
C2282       C  0.78233682  0.98723553  0.10851212    -0.20410
C2283       C  0.74825082  0.00797317  0.14113691    -0.06930
C2284       C  0.71099945  0.52806091  0.11996194     0.13930
C2285       C  0.67465551  0.55600799  0.14925164    -0.23760
H2286       H  0.67747718  0.53737338  0.05834292     0.15220
H2287       H  0.81184010  0.97105375  0.12028745     0.15250
C2288       C  0.81420518  0.94962580  0.03409955    -0.23710
H2289       H  0.64578078  0.56635179  0.13017508     0.05460
H2290       H  0.68768789  0.58669104  0.16634114     0.08690
H2291       H  0.66361205  0.03690569  0.17516162     0.08690
H2292       H  0.84693845  0.46247546  0.03663253     0.08670
H2293       H  0.80638268  0.94132717  0.99895581     0.08670
H2294       H  0.81548400  0.91760993  0.04828260     0.05450
C2295       C  0.98206064  0.97483507  0.24098171    -0.20360
C2296       C  0.51685638  0.00200608  0.25400527    -0.06930
C2297       C  0.55375660  0.97509282  0.26876218     0.13940
C2298       C  0.55260981  0.92754249  0.27455200    -0.20410
C2299       C  0.51809521  0.89956942  0.26045257    -0.06930
C2300       C  0.98424631  0.92592383  0.23967354     0.13930
C2301       C  0.95512353  0.90380681  0.20687319    -0.23760
H2302       H  0.95368317  0.99141819  0.22703418     0.15220
H2303       H  0.58124482  0.91145576  0.28855664     0.15250
C2304       C  0.59674237  0.99520121  0.27610199    -0.23710
H2305       H  0.95318690  0.92149043  0.17718602     0.05460
H2306       H  0.92094723  0.90602721  0.22185747     0.08690
H2307       H  0.96979227  0.86933207  0.19389621     0.08690
H2308       H  0.61012032  0.98816572  0.30820098     0.08670
H2309       H  0.59356028  0.03199737  0.27547704     0.08670
H2310       H  0.62030251  0.98024196  0.24855619     0.05450
C2311       C  0.97715888  0.68206997  0.29391848    -0.20360
C2312       C  0.00440083  0.65002059  0.26276108    -0.06930
C2313       C  0.52995714  0.67250006  0.23313500     0.13940
C2314       C  0.52510924  0.72183721  0.23391649    -0.20410
C2315       C  0.00052703  0.75446708  0.26763319    -0.06930
C2316       C  0.97520861  0.73093015  0.29698528     0.13930
C2317       C  0.94517957  0.75712335  0.33365753    -0.23760
H2318       H  0.95623881  0.66860450  0.31756631     0.15220
H2319       H  0.54048711  0.73404988  0.20628418     0.15250
C2320       C  0.56423195  0.64512509  0.20106480    -0.23710
H2321       H  0.96508749  0.78064791  0.35303716     0.05460
H2322       H  0.91626065  0.77500704  0.32016414     0.08690
H2323       H  0.93177490  0.73541041  0.35666965     0.08690
H2324       H  0.58703962  0.62359635  0.21892692     0.08670
H2325       H  0.58447458  0.66677066  0.18342336     0.08670
H2326       H  0.54754692  0.62412301  0.17559850     0.05450
C2327       C  0.43812508  0.80595749  0.95303021    -0.20360
C2328       C  0.41419688  0.83540387  0.98714464    -0.06930
C2329       C  0.91109923  0.81932724  0.02798247     0.13940
C2330       C  0.94915612  0.79527266  0.04143507    -0.20410
C2331       C  0.48319015  0.77529989  0.00894602    -0.06930
C2332       C  0.47719202  0.78093932  0.96377073     0.13930
C2333       C  0.51185276  0.76353106  0.92741376    -0.23760
H2334       H  0.43433713  0.81266753  0.91933605     0.15220
H2335       H  0.94935764  0.78664188  0.07494316     0.15250
C2336       C  0.87089602  0.83300795  0.05853822    -0.23710
H2337       H  0.51792830  0.79108906  0.90774079     0.05460
H2338       H  0.50014110  0.73441316  0.40540506     0.08690
H2339       H  0.54410239  0.75366727  0.94077528     0.08690
H2340       H  0.84216190  0.84517619  0.54000998     0.08670
H2341       H  0.87800114  0.86025356  0.08489804     0.08670
H2342       H  0.86123759  0.80329513  0.07311485     0.05450
C2343       C  0.99852100  0.62668456  0.50111827    -0.20360
C2344       C  0.99699612  0.66009177  0.53648126    -0.06930
C2345       C  0.52420229  0.65503114  0.07305466     0.13940
C2346       C  0.55155620  0.61427101  0.07249018    -0.20410
C2347       C  0.05534302  0.58170684  0.53421348    -0.06930
C2348       C  0.03114250  0.59141942  0.49753952     0.13930
C2349       C  0.03888496  0.56698725  0.45272953    -0.23760
H2350       H  0.97887897  0.63166008  0.47257672     0.15220
H2351       H  0.56876966  0.60737000  0.10170873     0.15250
C2352       C  0.52254554  0.69103624  0.11276935    -0.23710
H2353       H  0.04501572  0.59093837  0.42938292     0.05460
H2354       H  0.00809469  0.55254065  0.44323538     0.08690
H2355       H  0.06782625  0.54252644  0.45010136     0.08690
H2356       H  0.50165079  0.72215246  0.10812024     0.08670
H2357       H  0.55618007  0.70040106  0.61924954     0.08670
H2358       H  0.50763590  0.67837063  0.14188716     0.05450
C2359       C  0.80353814  0.55398629  0.99444483    -0.20360
C2360       C  0.79977234  0.51847837  0.46022530    -0.06930
C2361       C  0.83742181  0.99033249  0.44150912     0.13940
C2362       C  0.87789112  0.00069428  0.45575746    -0.20410
C2363       C  0.88143113  0.53143819  0.49391214    -0.06930
C2364       C  0.84370754  0.55676360  0.01494207     0.13930
C2365       C  0.84510583  0.58303729  0.06015792    -0.23760
H2366       H  0.77409137  0.57518932  0.00865354     0.15220
H2367       H  0.90615441  0.97966581  0.44029989     0.15250
C2368       C  0.83608184  0.94677241  0.41009497    -0.23710
H2369       H  0.81265273  0.60217193  0.07096422     0.05460
H2370       H  0.87103855  0.60616456  0.05914223     0.08690
H2371       H  0.85330364  0.55986320  0.08477417     0.08690
H2372       H  0.84727968  0.95153250  0.37601891     0.08670
H2373       H  0.80285144  0.93425161  0.40930317     0.08670
H2374       H  0.85820601  0.91940936  0.42126528     0.05450
C2375       C  0.64188548  0.43073876  0.43532929    -0.20360
C2376       C  0.64119530  0.89593901  0.96197076    -0.06930
C2377       C  0.67341848  0.89203133  0.99366486     0.13940
C2378       C  0.70459745  0.92321354  0.99807864    -0.20410
C2379       C  0.70074072  0.96147790  0.97607511    -0.06930
C2380       C  0.66660877  0.46695483  0.44685995     0.13930
C2381       C  0.65208362  0.51215671  0.43275165    -0.23760
H2382       H  0.61839527  0.43341177  0.40963256     0.15220
H2383       H  0.73095713  0.91835688  0.02044179     0.15250
C2384       C  0.67461257  0.85683282  0.02410760    -0.23710
H2385       H  0.64084462  0.53661821  0.46262436     0.05460
H2386       H  0.62536018  0.50886902  0.40917703     0.08690
H2387       H  0.67767452  0.52790048  0.41582670     0.08690
H2388       H  0.67334474  0.82304466  0.00461442     0.08670
H2389       H  0.64591493  0.86480072  0.04866175     0.08670
H2390       H  0.70534339  0.85611557  0.04300083     0.05450
C2391       C  0.53720049  0.54067857  0.35655366    -0.20360
C2392       C  0.00159442  0.51386064  0.35939932    -0.06930
C2393       C  0.96061492  0.02780319  0.34183103     0.13940
C2394       C  0.95829437  0.06583229  0.31984650    -0.20410
C2395       C  0.99607831  0.58845072  0.31377580    -0.06930
C2396       C  0.53295705  0.58034774  0.33824763     0.13930
C2397       C  0.56990007  0.61075914  0.34015947    -0.23760
H2398       H  0.56886537  0.53140447  0.36956101     0.15220
H2399       H  0.93068038  0.07175465  0.29955801     0.15250
C2400       C  0.92133582  0.00062054  0.34020193    -0.23710
H2401       H  0.59770475  0.59845929  0.35960343     0.05460
H2402       H  0.55637464  0.64480204  0.35641957     0.08690
H2403       H  0.58325015  0.61339378  0.30626737     0.08690
H2404       H  0.90819521  0.99928678  0.37397837     0.08670
H2405       H  0.93123606  0.96631362  0.32260034     0.08670
H2406       H  0.89367375  0.01568249  0.32226608     0.05450
C2407       C  0.56353874  0.02409670  0.17449305    -0.20360
C2408       C  0.02467293  0.05067089  0.19259147    -0.06930
C2409       C  0.98561952  0.54686792  0.16945955     0.13940
C2410       C  0.98068863  0.50560689  0.14448530    -0.20410
C2411       C  0.51813097  0.97245925  0.13399403    -0.06930
C2412       C  0.56088808  0.98558622  0.14325103     0.13930
C2413       C  0.60226339  0.96300870  0.11683506    -0.23760
H2414       H  0.59451765  0.02968363  0.18950110     0.15220
H2415       H  0.94810170  0.49983741  0.13258446     0.15250
C2416       C  0.94785988  0.58347078  0.17407413    -0.23710
H2417       H  0.63183404  0.98053047  0.12546727     0.05460
H2418       H  0.59837835  0.96368553  0.08087906     0.08690
H2419       H  0.60886712  0.92734592  0.12124591     0.08690
H2420       H  0.95427895  0.61313872  0.19789540     0.08670
H2421       H  0.91693690  0.57003468  0.18460767     0.08670
H2422       H  0.94297403  0.59471123  0.14115385     0.05450
Zn2423     Zn  0.55924496  0.45513471  0.96461340     1.49720
Zn2424     Zn  0.98732033  0.48206298  0.55263976     1.49360
Zn2425     Zn  0.96828753  0.95465361  0.96353188     1.49110
Zn2426     Zn  0.53147429  0.88909122  0.52368018     1.49480
O2427       O  0.51417724  0.44560540  0.49982829    -1.84180
O2428       O  0.58431548  0.50463437  0.00941864    -0.74810
O2429       O  0.92848322  0.51798340  0.55084788    -0.74630
O2430       O  0.97710718  0.95561600  0.89843230    -0.74150
O2431       O  0.03436421  0.52250595  0.56719180    -0.74830
O2432       O  0.54142231  0.47930558  0.91172973    -0.74420
O2433       O  0.95749187  0.01970647  0.98567949    -0.75010
O2434       O  0.47591308  0.86885797  0.50810752    -0.74400
O2435       O  0.97414153  0.43243557  0.58485054    -0.75160
O2436       O  0.92520839  0.91066210  0.97599070    -0.74550
O2437       O  0.54011787  0.90150496  0.59001391    -0.75010
O2438       O  0.58881247  0.85298475  0.49465308    -0.74920
O2439       O  0.56847456  0.38965305  0.94265788    -0.74710
C2440       C  0.06224425  0.53364227  0.03955872     0.77080
C2441       C  0.92430910  0.52792367  0.01241306     0.77570
C2442       C  0.00740245  0.47884867  0.88903391     0.76530
C2443       C  0.43785484  0.87525113  0.49203420     0.76910
C2444       C  0.50933614  0.93145523  0.60501825     0.78040
C2445       C  0.59963174  0.87370984  0.46311419     0.77090
C2446       C  0.01787874  0.05343675  0.74076062     0.00510
C2447       C  0.00668695  0.59644410  0.76861452     0.00510
C2448       C  0.73303637  0.99399059  0.48495218     0.00510
C2449       C  0.75716565  0.00677338  0.94676808     0.00510
C2450       C  0.97657164  0.70255559  0.02680936     0.00510
C2451       C  0.50825619  0.73363928  0.01850691     0.00510
C2452       C  0.52362471  0.84471754  0.76429978     0.00510
C2453       C  0.99355040  0.81049983  0.76867068     0.00510
Zn2454     Zn  0.80758184  0.72599273  0.76482908     1.49720
Zn2455     Zn  0.73120575  0.81122597  0.77919836     1.49360
Zn2456     Zn  0.71824183  0.72003535  0.71207284     1.49110
Zn2457     Zn  0.70518233  0.72539474  0.81301314     1.49480
O2458       O  0.74038030  0.74522941  0.76847555    -1.84180
O2459       O  0.83659141  0.78039088  0.76517323    -0.74810
O2460       O  0.68514129  0.82376315  0.73888458    -0.74630
O2461       O  0.76317505  0.67037363  0.71316194    -0.74150
O2462       O  0.78519836  0.83778317  0.76125162    -0.74830
O2463       O  0.82900512  0.68907899  0.70439706    -0.74420
O2464       O  0.71722195  0.77780835  0.68079539    -0.75010
O2465       O  0.66806401  0.68331368  0.77742542    -0.74400
O2466       O  0.71813955  0.83571921  0.84424001    -0.75160
O2467       O  0.66516493  0.68484914  0.70704913    -0.74550
O2468       O  0.67304924  0.78462019  0.83663804    -0.75010
O2469       O  0.75837688  0.70421583  0.84516631    -0.74920
O2470       O  0.82549097  0.69531177  0.81671351    -0.74710
C2471       C  0.82520980  0.82074783  0.75933865     0.77080
C2472       C  0.70155993  0.81739063  0.69920529     0.77570
C2473       C  0.79464774  0.67488068  0.68750616     0.76530
C2474       C  0.64909077  0.69873895  0.74563604     0.76910
C2475       C  0.69666442  0.80803222  0.86159467     0.78040
C2476       C  0.78957119  0.67850194  0.82336006     0.77090
C2477       C  0.72308595  0.71512386  0.52930539     0.00510
C2478       C  0.76354036  0.72010115  0.00162948     0.00510
C2479       C  0.74515022  0.99237244  0.69073231     0.00510
C2480       C  0.75146762  0.51366606  0.73569476     0.00510
C2481       C  0.73595213  0.62535269  0.79687313    -0.20360
C2482       C  0.77915567  0.63807657  0.79377963    -0.06930
C2483       C  0.81099273  0.61153779  0.76313600     0.13940
C2484       C  0.79736660  0.57571662  0.73370814    -0.20410
C2485       C  0.75459259  0.56225996  0.73919429    -0.06930
C2486       C  0.72257527  0.58944606  0.76837553     0.13930
C2487       C  0.67596864  0.57648636  0.77492485    -0.23760
H2488       H  0.71273795  0.64222745  0.82322702     0.15220
H2489       H  0.82215794  0.55314958  0.71278470     0.15250
C2490       C  0.85997236  0.61527749  0.76679588    -0.23710
H2491       H  0.65157669  0.60364599  0.76720052     0.05460
H2492       H  0.66982848  0.57058977  0.80984478     0.08690
H2493       H  0.67006719  0.54551646  0.75269502     0.08690
H2494       H  0.86790913  0.61654230  0.80224123     0.08670
H2495       H  0.87034523  0.64575732  0.75427439     0.08670
H2496       H  0.87968065  0.58534859  0.74824623     0.05450
C2497       C  0.75579238  0.86656190  0.67620406    -0.20360
C2498       C  0.71099752  0.85824431  0.68041101    -0.06930
C2499       C  0.67802523  0.89495850  0.68353517     0.13940
C2500       C  0.69035031  0.93824173  0.68367501    -0.20410
C2501       C  0.73471328  0.94624560  0.68586784    -0.06930
C2502       C  0.76821012  0.91066215  0.68038332     0.13930
C2503       C  0.81642173  0.91967245  0.68212186    -0.23760
H2504       H  0.78076509  0.83931317  0.67672519     0.15220
H2505       H  0.66518183  0.96635173  0.68716147     0.15250
C2506       C  0.63008848  0.88918697  0.69069118    -0.23710
H2507       H  0.83443101  0.90601828  0.64999077     0.05460
H2508       H  0.83102523  0.90544673  0.70995190     0.08690
H2509       H  0.82195608  0.95574113  0.68904682     0.08690
H2510       H  0.62456166  0.87606709  0.72232345     0.08670
H2511       H  0.62103988  0.86608989  0.66196317     0.08670
H2512       H  0.60834715  0.92120202  0.69329049     0.05450
C2513       C  0.75984937  0.73720910  0.59643960    -0.20360
C2514       C  0.73419270  0.70681209  0.57332845    -0.06930
C2515       C  0.72701687  0.66626041  0.58866243     0.13940
C2516       C  0.75133208  0.65388715  0.62387319    -0.20410
C2517       C  0.78171283  0.68205528  0.64377009    -0.06930
C2518       C  0.78527829  0.72428021  0.63026318     0.13930
C2519       C  0.81633151  0.75557928  0.65017690    -0.23760
H2520       H  0.76364565  0.76925025  0.58472203     0.15220
H2521       H  0.74608938  0.62280508  0.63669329     0.15250
C2522       C  0.69315467  0.63726747  0.56883016    -0.23710
H2523       H  0.81753184  0.78349664  0.63032913     0.05460
H2524       H  0.85009228  0.73819151  0.64930308     0.08690
H2525       H  0.80514824  0.76822340  0.68502752     0.08690
H2526       H  0.70256062  0.62434976  0.53340445     0.08670
H2527       H  0.65988749  0.65666776  0.57198290     0.08670
H2528       H  0.69002052  0.60896381  0.58738558     0.05450
C2529       C  0.69818547  0.74830329  0.90876963    -0.20360
C2530       C  0.71040534  0.79132364  0.90274390    -0.06930
C2531       C  0.74198490  0.81103452  0.93054736     0.13940
C2532       C  0.75718736  0.78836509  0.96514900    -0.20410
C2533       C  0.74985859  0.74303434  0.96504968    -0.06930
C2534       C  0.72343393  0.72173177  0.93402404     0.13930
C2535       C  0.72716166  0.67074123  0.92349634    -0.23760
H2536       H  0.67511259  0.73184727  0.88778178     0.15220
H2537       H  0.77820934  0.80415002  0.98953132     0.15250
C2538       C  0.76231769  0.85324056  0.92241861    -0.23710
H2539       H  0.69974634  0.65887286  0.90311624     0.05460
H2540       H  0.72888681  0.65377325  0.95358081     0.08690
H2541       H  0.75897220  0.65903072  0.90482391     0.08690
H2542       H  0.73606398  0.88040487  0.91864018     0.08670
H2543       H  0.78417294  0.84619375  0.89153820     0.08670
H2544       H  0.78310121  0.86542908  0.95004073     0.05450
C2545       C  0.58165421  0.80494813  0.79913225    -0.20360
C2546       C  0.56841162  0.82318251  0.76112150    -0.06930
C2547       C  0.58482363  0.80275608  0.71854112     0.13940
C2548       C  0.61585729  0.76521150  0.71533289    -0.20410
C2549       C  0.62318572  0.74274380  0.75254657    -0.06930
C2550       C  0.60187208  0.76088829  0.79395687     0.13930
C2551       C  0.59394795  0.73226207  0.83007962    -0.23760
H2552       H  0.56557836  0.81942161  0.83111532     0.15220
H2553       H  0.62859084  0.74952737  0.68261735     0.15250
C2554       C  0.56099779  0.81233974  0.67732503    -0.23710
H2555       H  0.57548043  0.75213627  0.85946840     0.05460
H2556       H  0.62502810  0.71708890  0.84162479     0.08690
H2557       H  0.57404285  0.70472026  0.81704087     0.08690
H2558       H  0.55434906  0.84898938  0.67629055     0.08670
H2559       H  0.52814725  0.79886086  0.67712578     0.08670
H2560       H  0.57996345  0.79589225  0.64685234     0.05450
C2561       C  0.87797218  0.86760519  0.78931001    -0.20360
C2562       C  0.86094911  0.84686045  0.75033567    -0.06930
C2563       C  0.89084089  0.82580338  0.71531737     0.13940
C2564       C  0.93192079  0.80928093  0.72543480    -0.20410
C2565       C  0.94828500  0.82578588  0.76544947    -0.06930
C2566       C  0.92275384  0.85761214  0.79722695     0.13930
C2567       C  0.94125403  0.87810322  0.83973238    -0.23760
H2568       H  0.85539381  0.88564528  0.81576516     0.15220
H2569       H  0.95350965  0.78851485  0.69961148     0.15250
C2570       C  0.88406904  0.82598549  0.66709890    -0.23710
H2571       H  0.91582399  0.90146960  0.86054844     0.05460
H2572       H  0.96942068  0.89713919  0.83224265     0.08690
H2573       H  0.95341336  0.85226363  0.85985551     0.08690
H2574       H  0.84992985  0.83715484  0.66147013     0.08670
H2575       H  0.89418278  0.79231376  0.64799748     0.08670
H2576       H  0.90551732  0.84956961  0.65392380     0.05450
C2577       C  0.90190478  0.71475931  0.98016133    -0.20360
C2578       C  0.92215592  0.70552016  0.01996325    -0.06930
C2579       C  0.88900059  0.69341397  0.55069244     0.13940
C2580       C  0.84117039  0.69416208  0.54252210    -0.20410
C2581       C  0.81931553  0.71198247  0.00671429    -0.06930
C2582       C  0.85385581  0.71849635  0.97321730     0.13930
C2583       C  0.84262891  0.72386613  0.92622886    -0.23760
H2584       H  0.92450738  0.71738180  0.95244934     0.15220
H2585       H  0.82166650  0.67725078  0.56363028     0.15250
C2586       C  0.90477434  0.67849676  0.59323081    -0.23710
H2587       H  0.87218482  0.71573245  0.90269142     0.05460
H2588       H  0.83031555  0.75911329  0.92372227     0.08690
H2589       H  0.81880213  0.69989237  0.91418488     0.08690
H2590       H  0.92120060  0.70581474  0.61246382     0.08670
H2591       H  0.92852611  0.64782184  0.58595525     0.08670
H2592       H  0.87704923  0.66967505  0.61431605     0.05450
C2593       C  0.58753888  0.75725241  0.54989465    -0.20360
C2594       C  0.56330375  0.72860713  0.51973297    -0.06930
C2595       C  0.59512306  0.69854544  0.98983355     0.13940
C2596       C  0.64355705  0.69483996  0.99353495    -0.20410
C2597       C  0.66803444  0.72355575  0.52269853    -0.06930
C2598       C  0.63667515  0.75468047  0.55218950     0.13930
C2599       C  0.65470671  0.78449616  0.58932949    -0.23760
H2600       H  0.56748289  0.78234550  0.57301413     0.15220
H2601       H  0.66109275  0.66608958  0.97375719     0.15250
C2602       C  0.57995469  0.67054611  0.94999986    -0.23710
H2603       H  0.63187424  0.81542618  0.59928126     0.05460
H2604       H  0.68717549  0.79514703  0.57931053     0.08690
H2605       H  0.65923570  0.76579913  0.61796371     0.08690
H2606       H  0.54332984  0.67318350  0.94845470     0.08670
H2607       H  0.59384040  0.63528272  0.95029192     0.08670
H2608       H  0.59398788  0.68191091  0.91957717     0.05450
C2609       C  0.73291676  0.97057166  0.86124811    -0.20360
C2610       C  0.75354704  0.50273041  0.89141131    -0.06930
C2611       C  0.77766849  0.53070949  0.86557224     0.13940
C2612       C  0.78136789  0.52459516  0.81749370    -0.20410
C2613       C  0.75494481  0.49901601  0.78721290    -0.06930
C2614       C  0.73172078  0.96955163  0.81214713     0.13930
C2615       C  0.70672874  0.93427495  0.78800645    -0.23760
H2616       H  0.71728711  0.94482862  0.87572512     0.15220
H2617       H  0.80604936  0.54261103  0.80349624     0.15250
C2618       C  0.80041241  0.56992602  0.88745540    -0.23710
H2619       H  0.68939303  0.91490401  0.81082268     0.05460
H2620       H  0.73008155  0.91027314  0.76553113     0.08690
H2621       H  0.68151697  0.95063639  0.76919239     0.08690
H2622       H  0.78069097  0.58693817  0.91748863     0.08670
H2623       H  0.80352699  0.59578730  0.86513769     0.08670
H2624       H  0.83474056  0.55873462  0.89541664     0.05450
C2625       C  0.70796471  0.52389284  0.57134561    -0.20360
C2626       C  0.74229631  0.00272485  0.53870969    -0.06930
C2627       C  0.77925954  0.98257769  0.56025012     0.13940
C2628       C  0.78226974  0.98722747  0.60846793    -0.20410
C2629       C  0.74819911  0.00797103  0.64111080    -0.06930
C2630       C  0.71097298  0.52800163  0.62000181     0.13930
C2631       C  0.67457405  0.55582722  0.64931410    -0.23760
H2632       H  0.67745102  0.53737615  0.55839791     0.15220
H2633       H  0.81176092  0.97100206  0.62023573     0.15250
C2634       C  0.81414697  0.94971474  0.53401471    -0.23710
H2635       H  0.64565709  0.56609355  0.63025646     0.05460
H2636       H  0.68752081  0.58655004  0.66642197     0.08690
H2637       H  0.66341108  0.03673812  0.67503864     0.08690
H2638       H  0.84701452  0.46280250  0.53662613     0.08670
H2639       H  0.80630195  0.94141662  0.49887724     0.08670
H2640       H  0.81548783  0.91769259  0.54817968     0.05450
C2641       C  0.98204908  0.97489426  0.74110051    -0.20360
C2642       C  0.51689333  0.00208666  0.75405597    -0.06930
C2643       C  0.55384226  0.97513257  0.76867853     0.13940
C2644       C  0.55268652  0.92758965  0.77449256    -0.20410
C2645       C  0.51810785  0.89964707  0.76051974    -0.06930
C2646       C  0.98421447  0.92598280  0.73980407     0.13930
C2647       C  0.95496713  0.90389646  0.70711378    -0.23760
H2648       H  0.95363456  0.99150279  0.72723359     0.15220
H2649       H  0.58135946  0.91148533  0.78842094     0.15250
C2650       C  0.59686945  0.99519972  0.77588557    -0.23710
H2651       H  0.95282371  0.92165443  0.67748759     0.05460
H2652       H  0.92086161  0.90605631  0.72224847     0.08690
H2653       H  0.96965044  0.86945754  0.69400824     0.08690
H2654       H  0.61030865  0.98819405  0.80796671     0.08670
H2655       H  0.59371704  0.03198822  0.77520828     0.08670
H2656       H  0.62037620  0.98017680  0.74832003     0.05450
C2657       C  0.97742109  0.68209967  0.79415489    -0.20360
C2658       C  0.00452849  0.65002581  0.76289427    -0.06930
C2659       C  0.52993741  0.67255286  0.73317083     0.13940
C2660       C  0.52507839  0.72189214  0.73395112    -0.20410
C2661       C  0.00064293  0.75448362  0.76772232    -0.06930
C2662       C  0.97548118  0.73095955  0.79720439     0.13930
C2663       C  0.94566582  0.75718317  0.83402070    -0.23760
H2664       H  0.95660031  0.66866118  0.81790568     0.15220
H2665       H  0.54035086  0.73410134  0.70625713     0.15250
C2666       C  0.56408736  0.64518654  0.70095617    -0.23710
H2667       H  0.96571174  0.78068539  0.85325330     0.05460
H2668       H  0.91666478  0.77509487  0.82068681     0.08690
H2669       H  0.93239688  0.73548701  0.85712226     0.08690
H2670       H  0.58695576  0.62360378  0.71870697     0.08670
H2671       H  0.58429039  0.66684071  0.68327759     0.08670
H2672       H  0.54728864  0.62424886  0.67553040     0.05450
C2673       C  0.43772337  0.80608812  0.45280600    -0.20360
C2674       C  0.41376699  0.83548664  0.48694649    -0.06930
C2675       C  0.91068630  0.81933425  0.52776236     0.13940
C2676       C  0.94872818  0.79522962  0.54117651    -0.20410
C2677       C  0.48271552  0.77527349  0.50869559    -0.06930
C2678       C  0.47674095  0.78097247  0.46352968     0.13930
C2679       C  0.51135971  0.76346772  0.42715344    -0.23760
H2680       H  0.43397726  0.81286230  0.41912399     0.15220
H2681       H  0.94897813  0.78666812  0.57470846     0.15250
C2682       C  0.87080066  0.83357963  0.55862794    -0.23710
H2683       H  0.51749669  0.79098010  0.40744056     0.05460
H2684       H  0.50071172  0.73445503  0.90563576     0.08690
H2685       H  0.54359451  0.75353469  0.44050813     0.08690
H2686       H  0.84248974  0.84507118  0.03986913     0.08670
H2687       H  0.87817836  0.86123679  0.58445170     0.08670
H2688       H  0.86134122  0.80423466  0.57393785     0.05450
C2689       C  0.99895143  0.62678071  0.00117237    -0.20360
C2690       C  0.99742248  0.66012337  0.03658218    -0.06930
C2691       C  0.52380597  0.65511150  0.57294476     0.13940
C2692       C  0.55124593  0.61441497  0.57239636    -0.20410
C2693       C  0.05560854  0.58162115  0.03429063    -0.06930
C2694       C  0.03149371  0.59145309  0.99759593     0.13930
C2695       C  0.03911161  0.56695461  0.95280454    -0.23760
H2696       H  0.97933848  0.63181983  0.97262493     0.15220
H2697       H  0.56851846  0.60759653  0.60160686     0.15250
C2698       C  0.52211615  0.69114402  0.61264345    -0.23710
H2699       H  0.04541798  0.59084812  0.92944420     0.05460
H2700       H  0.00822771  0.55263972  0.94335876     0.08690
H2701       H  0.06791753  0.54234103  0.95019772     0.08690
H2702       H  0.50115058  0.72221449  0.60798841     0.08670
H2703       H  0.55662687  0.70021749  0.11941054     0.08670
H2704       H  0.50728924  0.67846439  0.64179673     0.05450
C2705       C  0.80350748  0.55419678  0.49458076    -0.20360
C2706       C  0.79975433  0.51822218  0.96015344    -0.06930
C2707       C  0.83761544  0.99011457  0.94153589     0.13940
C2708       C  0.87810586  0.00034439  0.95583232    -0.20410
C2709       C  0.88143728  0.53114721  0.99374220    -0.06930
C2710       C  0.84364390  0.55692800  0.51515677     0.13930
C2711       C  0.84490993  0.58292604  0.56051910    -0.23760
H2712       H  0.77403344  0.57534554  0.50880806     0.15220
H2713       H  0.90634986  0.97926521  0.94037866     0.15250
C2714       C  0.83620999  0.94659256  0.91009121    -0.23710
H2715       H  0.81242830  0.60199182  0.57135453     0.05460
H2716       H  0.87082531  0.60608522  0.55975252     0.08690
H2717       H  0.85305549  0.55956302  0.58497789     0.08690
H2718       H  0.84748423  0.95136351  0.87604144     0.08670
H2719       H  0.80294436  0.93416113  0.90923706     0.08670
H2720       H  0.85824503  0.91916748  0.92127644     0.05450
C2721       C  0.64187625  0.43055218  0.93527378    -0.20360
C2722       C  0.64081693  0.89614013  0.46230809    -0.06930
C2723       C  0.67321786  0.89212082  0.49380557     0.13940
C2724       C  0.70447872  0.92322313  0.49806596    -0.20410
C2725       C  0.70057988  0.96149913  0.47608469    -0.06930
C2726       C  0.66658874  0.46676983  0.94682751     0.13930
C2727       C  0.65206015  0.51197552  0.93274074    -0.23760
H2728       H  0.61837753  0.43324207  0.90958524     0.15220
H2729       H  0.73093447  0.91831174  0.52031282     0.15250
C2730       C  0.67451746  0.85688355  0.52420346    -0.23710
H2731       H  0.64082032  0.53641253  0.96263161     0.05460
H2732       H  0.62534415  0.50869320  0.90915732     0.08690
H2733       H  0.67764960  0.52773469  0.91583062     0.08690
H2734       H  0.67302036  0.82313646  0.50470315     0.08670
H2735       H  0.64599378  0.86493259  0.54895554     0.08670
H2736       H  0.70539354  0.85601468  0.54286936     0.05450
C2737       C  0.53716170  0.54063442  0.85666493    -0.20360
C2738       C  0.00153848  0.51381330  0.85949622    -0.06930
C2739       C  0.96084591  0.02782285  0.84193901     0.13940
C2740       C  0.95848977  0.06590580  0.82004121    -0.20410
C2741       C  0.99610164  0.58841088  0.81386916    -0.06930
C2742       C  0.53295090  0.58032042  0.83838219     0.13930
C2743       C  0.56991850  0.61070852  0.84032203    -0.23760
H2744       H  0.56882370  0.53131897  0.86965389     0.15220
H2745       H  0.93081266  0.07191151  0.79987069     0.15250
C2746       C  0.92152494  0.00069796  0.84040149    -0.23710
H2747       H  0.59770948  0.59837673  0.85976530     0.05460
H2748       H  0.55641636  0.64475690  0.85659286     0.08690
H2749       H  0.58328787  0.61335202  0.80643836     0.08690
H2750       H  0.90846155  0.99937808  0.87420989     0.08670
H2751       H  0.93134890  0.96638067  0.82278195     0.08670
H2752       H  0.89383185  0.01580427  0.82253651     0.05450
C2753       C  0.56321135  0.02401515  0.67443372    -0.20360
C2754       C  0.02452500  0.05080828  0.69263680    -0.06930
C2755       C  0.98579830  0.54700150  0.66954452     0.13940
C2756       C  0.98072339  0.50578123  0.64456904    -0.20410
C2757       C  0.51729438  0.97271113  0.63421724    -0.06930
C2758       C  0.56021228  0.98549087  0.64332844     0.13930
C2759       C  0.60142682  0.96260681  0.61683099    -0.23760
H2760       H  0.59430046  0.02940500  0.68929112     0.15220
H2761       H  0.94812148  0.50015894  0.63262667     0.15250
C2762       C  0.94821562  0.58378524  0.67403905    -0.23710
H2763       H  0.63116434  0.97992690  0.62536844     0.05460
H2764       H  0.59748355  0.96325838  0.58087831     0.08690
H2765       H  0.60777612  0.92692699  0.62126504     0.08690
H2766       H  0.95473459  0.61343450  0.69782757     0.08670
H2767       H  0.91717280  0.57055290  0.68454102     0.08670
H2768       H  0.94348543  0.59499320  0.64108235     0.05450
loop_ 
_geom_bond_atom_site_label_1 
_geom_bond_atom_site_label_2 
_geom_bond_distance 
_geom_bond_site_symmetry_2 
_ccdc_geom_bond_type 
Zn1           O6   2.093   1_565  S
Zn1          O10   1.928       .  S
Zn1          O17   1.981       .  S
Zn1         O351   1.769       .  S
Zn2           O7   1.999   1_565  S
Zn2           O9   1.979   1_565  S
Zn2          O13   1.955       .  S
Zn2        O1389   1.920   1_554  S
Zn3           O8   1.990       .  S
Zn3          O11   1.972       .  S
Zn3          O14   2.003       .  S
Zn3        O2427   1.842       .  S
Zn4          O12   1.895   1_455  S
Zn4          O15   2.031       .  S
Zn4          O16   2.057   1_554  S
Zn4         O697   1.969   1_554  S
O5         Zn347   1.768       .  S
O5        Zn1386   1.920   1_456  S
O5        Zn2425   1.842   1_455  S
O5         Zn696   1.969   1_556  S
O6         C1402   1.292       .  A
O7          C365   1.254       .  A
O8          C712   1.260       .  A
O9          C364   1.271       .  A
O10        C1404   1.261       .  A
O11         C711   1.245       .  A
O12          C21   1.276   1_554  A
O13        C2098   1.248       .  A
O14        C1751   1.273       .  A
O15          C22   1.259       .  A
O16          C23   1.261       .  A
O17        C1061   1.244       .  A
C18        O1390   1.292       .  A
C18         O355   1.271       .  A
C18         C271   1.470       .  S
C19         O353   1.254       .  A
C19         O703   1.245       .  A
C19         C287   1.436       .  S
C20         O700   1.259       .  A
C20        O1394   1.261       .  A
C20         C316   1.476   1_565  S
C21        O1744   1.273       .  A
C21         C252   1.450       .  S
C22        O2089   1.248   1_455  A
C22         C335   1.469       .  S
C23        O1055   1.244       .  A
C23         C300   1.471       .  S
C24         C332   1.458       .  S
C24        C1604   1.651       .  S
C24         C717   1.449       .  D
C25         C236   1.640       .  S
C25         C319   1.456       .  S
C25         C716   1.450       .  D
C26         C204   1.658   1_556  S
C26         C303   1.455       .  S
C26         C373   1.458       .  D
C27         C880   1.680       .  S
C27         C976   1.436       .  S
C27         C372   1.458       .  D
C28         C156   1.662       .  S
C28         C268   1.444       .  S
C28        C1413   1.438       .  D
C29         C518   1.673       .  S
C29         C601   1.474   1_455  S
C29        C1412   1.438   1_455  D
C30         C124   1.439       .  S
C30         C223   1.665       .  S
C30        C1415   1.451   1_455  D
C31         C143   1.414       .  S
C31         C239   1.675       .  S
C31        C1414   1.451       .  D
Zn32         O37   1.925       .  S
Zn32         O41   2.059       .  S
Zn32         O48   2.001       .  S
Zn32         O36   2.054       .  S
Zn33         O38   1.936       .  S
Zn33         O40   1.973       .  S
Zn33         O44   2.023       .  S
Zn33         O36   1.959       .  S
Zn34         O39   1.928       .  S
Zn34         O42   2.089       .  S
Zn34         O45   2.001       .  S
Zn34         O36   1.946       .  S
Zn35         O43   2.004       .  S
Zn35         O46   1.977       .  S
Zn35         O47   2.012       .  S
Zn35         O36   1.882       .  S
O37          C49   1.269       .  A
O38          C50   1.268       .  A
O39          C51   1.235       .  A
O40          C49   1.265       .  A
O41          C51   1.261       .  A
O42          C50   1.283       .  A
O43          C52   1.263       .  A
O44          C53   1.259       .  A
O45          C52   1.252       .  A
O46          C53   1.253       .  A
O47          C54   1.266       .  A
O48          C54   1.260       .  A
C49         C140   1.432       .  S
C50          C76   1.470       .  S
C51          C95   1.438       .  S
C52         C127   1.459       .  S
C53         C108   1.471       .  S
C54          C60   1.477       .  S
C55          C92   1.440       .  S
C55         C175   1.684       .  S
C55         C402   1.476       .  D
C56         C111   1.440       .  S
C56         C159   1.697       .  S
C56         C401   1.476       .  D
C57          C79   1.440       .  S
C57         C207   1.641       .  S
C57         C750   1.455       .  D
C58          C63   1.463       .  S
C58         C191   1.688   1_545  S
C58         C749   1.455   1_545  D
C59          C60   1.397       .  A
C59          C64   1.390       .  A
C59          H66   1.081       .  S
C60          C61   1.419       .  A
C61          C62   1.407       .  A
C61          C68   1.503       .  S
C62          C63   1.401       .  A
C62          H67   1.085       .  S
C63          C64   1.407       .  A
C64          C65   1.509       .  S
C65          H69   1.105       .  S
C65          H70   1.111       .  S
C65          H71   1.106       .  S
C68          H72   1.109       .  S
C68          H73   1.105       .  S
C68          H74   1.103       .  S
C75          C76   1.404       .  A
C75          C80   1.403       .  A
C75          H82   1.057       .  S
C76          C77   1.408       .  A
C77          C78   1.386       .  A
C77          C84   1.486       .  S
C78          C79   1.387       .  A
C78          H83   1.074       .  S
C79          C80   1.391       .  A
C80          C81   1.508       .  S
C81          H85   1.107       .  S
C81          H86   1.089       .  S
C81          H87   1.106       .  S
C84          H88   1.100       .  S
C84          H89   1.099       .  S
C84          H90   1.106       .  S
C91          C92   1.389       .  A
C91          C96   1.384       .  A
C91          H98   1.086       .  S
C92          C93   1.395       .  A
C93          C94   1.394       .  A
C93         C100   1.497       .  S
C94          C95   1.405       .  A
C94          H99   1.083       .  S
C95          C96   1.399       .  A
C96          C97   1.478       .  S
C97         H101   1.101       .  S
C97         H102   1.101       .  S
C97         H103   1.104       .  S
C100        H104   1.110       .  S
C100        H105   1.109       .  S
C100        H106   1.092       .  S
C107        C108   1.411       .  A
C107        C112   1.382       .  A
C107        H114   1.073       .  S
C108        C109   1.417       .  A
C109        C110   1.399       .  A
C109        C116   1.506       .  S
C110        C111   1.401       .  A
C110        H115   1.084       .  S
C111        C112   1.388       .  A
C112        C113   1.516       .  S
C113        H117   1.110       .  S
C113        H118   1.107       .  S
C113        H119   1.100       .  S
C116        H120   1.106       .  S
C116        H121   1.110       .  S
C116        H122   1.111       .  S
C123        C124   1.401       .  A
C123        C128   1.393       .  A
C123        H130   1.085       .  S
C124        C125   1.405       .  A
C125        C126   1.390       .  A
C125        C132   1.517       .  S
C126        C127   1.409       .  A
C126        H131   1.080       .  S
C127        C128   1.407       .  A
C128        C129   1.509       .  S
C129        H133   1.104       .  S
C129        H134   1.097       .  S
C129        H135   1.107       .  S
C132        H136   1.107       .  S
C132        H137   1.100       .  S
C132        H138   1.107       .  S
C139        C140   1.401       .  A
C139        C144   1.397       .  A
C139        H146   1.084       .  S
C140        C141   1.408       .  A
C141        C142   1.357       .  A
C141        C148   1.488       .  S
C142        C143   1.377       .  A
C142        H147   1.087       .  S
C143        C144   1.413       .  A
C144        C145   1.505       .  S
C145        H149   1.107       .  S
C145        H150   1.102       .  S
C145        H151   1.099       .  S
C148        H152   1.080       .  S
C148        H153   1.107       .  S
C148        H154   1.107       .  S
C155        C156   1.426       .  A
C155        C160   1.472       .  A
C155        H162   1.079       .  S
C156        C503   1.440       .  A
C157        C158   1.475       .  A
C157        C502   1.440       .  A
C157        C164   1.506       .  S
C158        C505   1.441       .  A
C158        H163   1.064       .  S
C159        C160   1.474       .  A
C159        C504   1.441       .  A
C160        C161   1.507       .  S
C161        H165   1.109       .  S
C161        H166   1.104       .  S
C161        H167   1.103       .  S
C164        H168   1.109       .  S
C164        H169   1.107       .  S
C164        H170   1.108       .  S
C171        C172   1.440       .  A
C171        C176   1.485       .  A
C171        H178   1.080       .  S
C172        C375   1.673       .  S
C172        C519   1.448   1_554  A
C173        C174   1.468       .  A
C173        C518   1.448       .  A
C173        C180   1.491       .  S
C174        C521   1.439       .  A
C174        H179   1.067       .  S
C175        C176   1.455       .  A
C175        C520   1.438   1_554  A
C176        C177   1.496       .  S
C177        H181   1.105       .  S
C177        H182   1.104       .  S
C177        H183   1.105       .  S
C180        H184   1.106       .  S
C180        H185   1.105       .  S
C180        H186   1.110       .  S
C187        C192   1.490       .  A
C187        C880   1.449       .  A
C187        H194   1.077       .  S
C188        C719   1.680       .  S
C188        C189   1.451       .  A
C188        C879   1.449   1_545  A
C189        C190   1.446       .  A
C189        C196   1.509       .  S
C190        C191   1.434   1_545  A
C190        H195   1.069       .  S
C191        C884   1.462       .  A
C192        C883   1.462       .  A
C192        C193   1.488       .  S
C193        H197   1.110       .  S
C193        H198   1.104       .  S
C193        H199   1.092       .  S
C196        H200   1.106       .  S
C196        H201   1.107       .  S
C196        H202   1.107       .  S
C203        C208   1.474       .  A
C203        C896   1.439       .  A
C203        H210   1.083       .  S
C204        C205   1.444       .  A
C204        C895   1.439       .  A
C205        C206   1.460       .  A
C205        C212   1.500       .  S
C206        C207   1.437       .  A
C206        H211   1.074       .  S
C207        C900   1.438       .  A
C208        C899   1.438       .  A
C208        C209   1.501       .  S
C209        H213   1.111       .  S
C209        H214   1.109       .  S
C209        H907   1.097       .  S
C212        H217   1.103   1_554  S
C212        H218   1.105       .  S
C212        H908   1.108       .  S
H215        C901   1.097       .  S
H216        C904   1.108       .  S
C219        C224   1.461       .  A
C219       C1604   1.427       .  A
C219        H226   1.082       .  S
C220       C1408   1.651       .  S
C220        C221   1.439       .  A
C220       C1603   1.427   1_455  A
C221        C222   1.468       .  A
C221        C228   1.495       .  S
C222        C223   1.442       .  A
C222        H227   1.083       .  S
C223       C1608   1.453   1_455  A
C224       C1607   1.453       .  A
C224        C225   1.486       .  S
C225        H229   1.109       .  S
C225        H230   1.105       .  S
C225        H231   1.103       .  S
C228        H232   1.110       .  S
C228        H233   1.105       .  S
C228        H234   1.096       .  S
C235        C236   1.430       .  A
C235        C240   1.455       .  A
C235        H242   1.082       .  S
C236       C1621   1.440       .  A
C237        C238   1.474       .  A
C237       C1620   1.440       .  A
C237        C244   1.498       .  S
C238       C1623   1.446       .  A
C238        H243   1.068       .  S
C239        C240   1.449       .  A
C239       C1622   1.446       .  A
C240        C241   1.495       .  S
C241        H245   1.097       .  S
C241        H246   1.106       .  S
C241        H247   1.109       .  S
C244        H248   1.110       .  S
C244        H249   1.108       .  S
C244        H250   1.099       .  S
C251        C252   1.398       .  A
C251        C256   1.414       .  A
C251        H258   1.079       .  S
C252       C1637   1.395   1_556  A
C253        C254   1.406       .  A
C253       C1636   1.395   1_554  A
C253        C260   1.490       .  S
C254       C1639   1.427       .  A
C254        H259   1.085       .  S
C255        C375   1.474   1_655  S
C255        C256   1.423   1_554  A
C255       C1638   1.427       .  A
C256        C257   1.497   1_655  S
C257        H261   1.110       .  S
C257        H263   1.102       .  S
C257        H608   1.109       .  S
C260        H265   1.108       .  S
C260        H266   1.107       .  S
C260        H610   1.108       .  S
H262        C603   1.109       .  S
H264        C606   1.108       .  S
C267        C268   1.364       .  A
C267        C272   1.370       .  A
C267        H274   1.089       .  S
C268       C1999   1.415       .  A
C269        C270   1.412       .  A
C269       C1998   1.415   1_455  A
C269        C276   1.503       .  S
C270       C2001   1.408       .  A
C270        H275   1.081       .  S
C271        C272   1.406       .  A
C271       C2000   1.408       .  A
C272        C273   1.456       .  S
C273        H277   1.100       .  S
C273        H278   1.096       .  S
C273        H279   1.083       .  S
C276        H280   1.108       .  S
C276        H282   1.106       .  S
C276        H627   1.110       .  S
H281        C622   1.110       .  S
C283        C288   1.391   1_556  A
C283        C630   1.408       .  A
C283        H290   1.084   1_556  S
C284        C719   1.435       .  S
C284        C629   1.408       .  A
C284        C977   1.402   1_545  A
C285        C286   1.363       .  A
C285        C976   1.402       .  A
C285        C292   1.517       .  S
C286        C979   1.395       .  A
C286        H291   1.067       .  S
C287        C978   1.395       .  A
C287        C634   1.398       .  A
C288        C633   1.397   1_554  A
C288        C289   1.493       .  S
C289        H293   1.105       .  S
C289        H294   1.097       .  S
C289        H295   1.110       .  S
C292        H296   1.108       .  S
C292        H297   1.105       .  S
C292        H298   1.110       .  S
C299        C304   1.391       .  A
C299       C1338   1.415       .  A
C299        H306   1.082       .  S
C300        C301   1.405       .  A
C300       C1337   1.415       .  A
C301        C302   1.387       .  A
C301        C308   1.497   1_556  S
C302        C303   1.406       .  A
C302        H307   1.080   1_556  S
C303       C1342   1.396       .  A
C304       C1341   1.396       .  A
C304        C305   1.513   1_565  S
C305        H309   1.108       .  S
C305        H310   1.103       .  S
C305        H311   1.091       .  S
C308        H312   1.109       .  S
C308        H313   1.108       .  S
C308        H314   1.111       .  S
C315        C320   1.381       .  A
C315       C1700   1.411       .  A
C315        H322   1.077       .  S
C316       C1699   1.411       .  A
C316       C1009   1.419       .  A
C317        C318   1.399       .  A
C317       C1008   1.419       .  A
C317        C324   1.501       .  S
C318       C1011   1.400       .  A
C318        H323   1.073       .  S
C319       C1010   1.400       .  A
C319       C1704   1.386       .  A
C320       C1703   1.386   1_455  A
C320        C321   1.506       .  S
C321        H325   1.111       .  S
C321        H326   1.108       .  S
C321        H327   1.107       .  S
C324        H328   1.093       .  S
C324        H329   1.105       .  S
C324        H330   1.111       .  S
C331        C336   1.404       .  A
C331       C1716   1.405       .  A
C331        H338   1.075       .  S
C332       C1715   1.405       .  A
C332       C1025   1.396       .  A
C333        C334   1.387       .  A
C333       C1024   1.396       .  A
C333        C340   1.499       .  S
C334       C2411   1.413   1_545  A
C334        H339   1.083   1_545  S
C335        C336   1.414       .  A
C335       C2410   1.413   1_455  A
C336        C337   1.511       .  S
C337        H341   1.102       .  S
C337        H342   1.106       .  S
C337        H343   1.100       .  S
C340        H344   1.107       .  S
C340        H345   1.105       .  S
C340        H346   1.110       .  S
Zn347       O352   2.093   1_566  S
Zn347       O356   1.927       .  S
Zn347       O363   1.982       .  S
Zn348       O353   2.000   1_565  S
Zn348       O355   1.980   1_565  S
Zn348       O359   1.955       .  S
Zn348      O1735   1.920       .  S
Zn349       O354   1.990       .  S
Zn349       O357   1.973       .  S
Zn349       O360   2.002       .  S
Zn349      O2081   1.842       .  S
Zn350       O358   1.894   1_455  S
Zn350       O361   2.031       .  S
Zn350       O362   2.057       .  S
Zn350      O1043   1.970       .  S
O351      Zn1732   1.920   1_455  S
O351      Zn2079   1.843   1_455  S
O351      Zn1042   1.970       .  S
O352       C1748   1.292       .  A
O354       C1058   1.260       .  A
O356       C1750   1.261       .  A
O357       C1057   1.245   1_556  A
O358        C367   1.276       .  A
O359       C2444   1.248       .  A
O360       C1405   1.273       .  A
O361        C368   1.259       .  A
O362        C369   1.261       .  A
O363        C715   1.244       .  A
C364       O1736   1.292       .  A
C364        C617   1.470       .  S
C365       O1049   1.245   1_554  A
C365        C633   1.436   1_554  S
C366       O1046   1.260       .  A
C366       O1740   1.261       .  A
C366        C662   1.476   1_565  S
C367       O1398   1.273       .  A
C367        C598   1.451       .  S
C368       O2435   1.248   1_455  A
C368        C681   1.469       .  S
C369        O709   1.244       .  A
C369        C646   1.471       .  S
C370       C1950   1.651       .  S
C370        C678   1.458       .  S
C370       C1063   1.450       .  D
C371        C582   1.639       .  S
C371        C665   1.456       .  S
C371       C1062   1.449       .  D
C372        C550   1.658       .  S
C372        C649   1.455       .  S
C373       C1226   1.680       .  S
C373       C1322   1.435       .  S
C374        C502   1.662       .  S
C374        C614   1.444       .  S
C374       C1759   1.438       .  D
C375       C1758   1.438   1_455  D
C376        C470   1.439       .  S
C376        C569   1.665       .  S
C376       C1761   1.451   1_455  D
C377        C489   1.414       .  S
C377        C585   1.675       .  S
C377       C1760   1.451       .  D
Zn378       O383   1.926       .  S
Zn378       O387   2.059       .  S
Zn378       O394   2.001       .  S
Zn378       O382   2.054       .  S
Zn379       O384   1.935       .  S
Zn379       O386   1.971       .  S
Zn379       O390   2.023       .  S
Zn379       O382   1.960       .  S
Zn380       O385   1.928       .  S
Zn380       O388   2.090       .  S
Zn380       O391   2.001       .  S
Zn380       O382   1.946       .  S
Zn381       O389   2.004       .  S
Zn381       O392   1.976       .  S
Zn381       O393   2.013       .  S
Zn381       O382   1.882       .  S
O383        C395   1.269       .  A
O384        C396   1.268       .  A
O385        C397   1.235       .  A
O386        C395   1.265       .  A
O387        C397   1.260       .  A
O388        C396   1.283       .  A
O389        C398   1.263       .  A
O390        C399   1.259       .  A
O391        C398   1.252       .  A
O392        C399   1.253       .  A
O393        C400   1.266       .  A
O394        C400   1.260       .  A
C395        C486   1.432       .  S
C396        C422   1.470       .  S
C397        C441   1.438       .  S
C398        C473   1.459       .  S
C399        C454   1.470       .  S
C400        C406   1.477       .  S
C401        C438   1.441       .  S
C401        C521   1.684       .  S
C402        C457   1.440   1_554  S
C402        C505   1.697       .  S
C403        C425   1.440       .  S
C403        C553   1.641       .  S
C403       C1096   1.455       .  D
C404        C409   1.463       .  S
C404        C537   1.688   1_545  S
C404       C1095   1.455   1_545  D
C405        C406   1.397       .  A
C405        C410   1.390       .  A
C405        H412   1.081       .  S
C406        C407   1.419       .  A
C407        C408   1.407       .  A
C407        C414   1.503       .  S
C408        C409   1.400       .  A
C408        H413   1.085       .  S
C409        C410   1.407       .  A
C410        C411   1.509       .  S
C411        H415   1.105       .  S
C411        H416   1.111       .  S
C411        H417   1.106       .  S
C414        H418   1.109       .  S
C414        H419   1.106       .  S
C414        H420   1.104       .  S
C421        C422   1.404       .  A
C421        C426   1.402       .  A
C421        H428   1.064       .  S
C422        C423   1.408       .  A
C423        C424   1.386       .  A
C423        C430   1.486       .  S
C424        C425   1.386       .  A
C424        H429   1.075       .  S
C425        C426   1.391       .  A
C426        C427   1.508       .  S
C427        H431   1.107       .  S
C427        H432   1.089       .  S
C427        H433   1.106       .  S
C430        H434   1.100       .  S
C430        H435   1.099       .  S
C430        H436   1.106       .  S
C437        C438   1.389       .  A
C437        C442   1.384       .  A
C437        H444   1.086       .  S
C438        C439   1.396       .  A
C439        C440   1.394       .  A
C439        C446   1.497       .  S
C440        C441   1.405       .  A
C440        H445   1.083       .  S
C441        C442   1.399       .  A
C442        C443   1.479       .  S
C443        H447   1.101       .  S
C443        H448   1.100       .  S
C443        H449   1.103       .  S
C446        H450   1.110       .  S
C446        H451   1.109       .  S
C446        H452   1.092       .  S
C453        C454   1.411       .  A
C453        C458   1.382       .  A
C453        H460   1.073       .  S
C454        C455   1.417       .  A
C455        C456   1.399       .  A
C455        C462   1.506       .  S
C456        C457   1.401       .  A
C456        H461   1.084       .  S
C457        C458   1.388       .  A
C458        C459   1.516       .  S
C459        H463   1.100       .  S
C459        H464   1.110       .  S
C459        H465   1.107       .  S
C462        H466   1.106       .  S
C462        H467   1.110       .  S
C462        H468   1.111       .  S
C469        C470   1.401       .  A
C469        C474   1.393       .  A
C469        H476   1.085       .  S
C470        C471   1.405       .  A
C471        C472   1.390       .  A
C471        C478   1.517       .  S
C472        C473   1.409       .  A
C472        H477   1.080       .  S
C473        C474   1.407       .  A
C474        C475   1.509       .  S
C475        H479   1.104       .  S
C475        H480   1.097       .  S
C475        H481   1.107       .  S
C478        H482   1.107       .  S
C478        H483   1.100       .  S
C478        H484   1.107       .  S
C485        C486   1.401       .  A
C485        C490   1.397       .  A
C485        H492   1.084       .  S
C486        C487   1.408       .  A
C487        C488   1.357       .  A
C487        C494   1.488       .  S
C488        C489   1.378       .  A
C488        H493   1.087       .  S
C489        C490   1.413       .  A
C490        C491   1.505       .  S
C491        H495   1.107       .  S
C491        H496   1.102       .  S
C491        H497   1.099       .  S
C494        H498   1.083       .  S
C494        H499   1.106       .  S
C494        H500   1.107       .  S
C501        C502   1.426   1_556  A
C501        C506   1.472       .  A
C501        H508   1.079       .  S
C503        C504   1.475       .  A
C503        C510   1.506       .  S
C504        H509   1.064       .  S
C505        C506   1.474   1_554  A
C506        C507   1.507       .  S
C507        H511   1.109       .  S
C507        H512   1.104       .  S
C507        H513   1.103       .  S
C510        H514   1.109       .  S
C510        H515   1.107       .  S
C510        H516   1.108       .  S
C517        C518   1.440       .  A
C517        C522   1.485       .  A
C517        H524   1.080       .  S
C519        C520   1.468       .  A
C519        C526   1.490       .  S
C520        H525   1.067       .  S
C521        C522   1.455       .  A
C522        C523   1.496       .  S
C523        H527   1.105       .  S
C523        H528   1.104       .  S
C523        H529   1.105       .  S
C526        H530   1.106       .  S
C526        H531   1.105       .  S
C526        H532   1.110       .  S
C533       C1226   1.449       .  A
C533        C538   1.490       .  A
C533        H540   1.077       .  S
C534       C1065   1.680       .  S
C534       C1225   1.450   1_545  A
C534        C535   1.451       .  A
C535        C536   1.446       .  A
C535        C542   1.510       .  S
C536        C537   1.434   1_545  A
C536        H541   1.069       .  S
C537       C1230   1.462       .  A
C538       C1229   1.462       .  A
C538        C539   1.488       .  S
C539        H543   1.110       .  S
C539        H544   1.104       .  S
C539        H545   1.092       .  S
C542        H546   1.106       .  S
C542        H547   1.107       .  S
C542        H548   1.107       .  S
C549       C1242   1.439       .  A
C549        C554   1.474       .  A
C549        H556   1.083       .  S
C550       C1241   1.439       .  A
C550        C551   1.444       .  A
C551        C552   1.460       .  A
C551        C558   1.500       .  S
C552        C553   1.437       .  A
C552        H557   1.074       .  S
C553       C1246   1.438       .  A
C554       C1245   1.439       .  A
C554        C555   1.501       .  S
C555        H559   1.111       .  S
C555        H560   1.109       .  S
C555       H1253   1.096       .  S
C558       H1254   1.108       .  S
C558        H563   1.103       .  S
C558        H564   1.105       .  S
H561       C1247   1.097       .  S
H562       C1250   1.108       .  S
C565       C1950   1.427       .  A
C565        C570   1.462       .  A
C565        H572   1.082       .  S
C566       C1754   1.651       .  S
C566       C1949   1.427   1_455  A
C566        C567   1.439       .  A
C567        C568   1.468       .  A
C567        C574   1.495       .  S
C568        C569   1.442       .  A
C568        H573   1.083       .  S
C569       C1954   1.453   1_455  A
C570       C1953   1.453       .  A
C570        C571   1.486       .  S
C571        H575   1.109       .  S
C571        H576   1.105       .  S
C571        H577   1.103       .  S
C574        H578   1.110       .  S
C574        H579   1.105       .  S
C574        H580   1.096       .  S
C581        C582   1.430       .  A
C581        C586   1.455       .  A
C581        H588   1.082       .  S
C582       C1967   1.440       .  A
C583       C1966   1.440       .  A
C583        C584   1.474       .  A
C583        C590   1.498       .  S
C584       C1969   1.446       .  A
C584        H589   1.068       .  S
C585       C1968   1.446       .  A
C585        C586   1.449       .  A
C586        C587   1.495       .  S
C587        H591   1.097       .  S
C587        H592   1.106       .  S
C587        H593   1.109       .  S
C590        H594   1.110       .  S
C590        H595   1.108       .  S
C590        H596   1.099       .  S
C597        C598   1.398       .  A
C597        C602   1.414       .  A
C597        H604   1.079       .  S
C598       C1983   1.395       .  A
C599       C1982   1.395       .  A
C599        C600   1.406       .  A
C599        C606   1.491       .  S
C600       C1985   1.427       .  A
C600        H605   1.085       .  S
C601       C1984   1.427       .  A
C601        C602   1.423       .  A
C602        C603   1.497   1_655  S
C603        H607   1.110       .  S
C603        H609   1.102       .  S
C606        H611   1.107       .  S
C606        H612   1.107       .  S
C613        C614   1.363       .  A
C613        C618   1.370   1_554  A
C613        H620   1.089   1_554  S
C614       C1653   1.415       .  A
C615       C1652   1.415   1_455  A
C615        C616   1.411       .  A
C615        C622   1.503       .  S
C616       C1655   1.408       .  A
C616        H621   1.081       .  S
C617       C1654   1.408       .  A
C617        C618   1.406   1_554  A
C618        C619   1.456       .  S
C619        H623   1.100       .  S
C619        H624   1.096       .  S
C619        H625   1.083       .  S
C622        H626   1.108       .  S
C622        H628   1.106       .  S
C629        C634   1.391       .  A
C629        H636   1.084       .  S
C630       C1065   1.436       .  S
C630       C1323   1.402   1_545  A
C631       C1322   1.402       .  A
C631        C632   1.363       .  A
C631        C638   1.517       .  S
C632       C1325   1.395       .  A
C632        H637   1.067       .  S
C633       C1324   1.395       .  A
C634        C635   1.493       .  S
C635        H639   1.104       .  S
C635        H640   1.097       .  S
C635        H641   1.110       .  S
C638        H642   1.108       .  S
C638        H643   1.105       .  S
C638        H644   1.110       .  S
C645        C992   1.415       .  A
C645        C650   1.391       .  A
C645        H652   1.082       .  S
C646        C991   1.415       .  A
C646        C647   1.405       .  A
C647        C648   1.387       .  A
C647        C654   1.497       .  S
C648        C649   1.406       .  A
C648        H653   1.080       .  S
C649        C996   1.396       .  A
C650        C995   1.396       .  A
C650        C651   1.513   1_565  S
C651        H655   1.108       .  S
C651        H656   1.103       .  S
C651        H657   1.091       .  S
C654        H658   1.109       .  S
C654        H659   1.108       .  S
C654        H660   1.111       .  S
C661       C2046   1.411       .  A
C661        C666   1.381       .  A
C661        H668   1.077       .  S
C662       C2045   1.411       .  A
C662       C1355   1.419       .  A
C663       C1354   1.419       .  A
C663        C664   1.399       .  A
C663        C670   1.501       .  S
C664       C1357   1.400       .  A
C664        H669   1.073       .  S
C665       C1356   1.400       .  A
C665       C2050   1.386       .  A
C666       C2049   1.386   1_455  A
C666        C667   1.505       .  S
C667        H671   1.111       .  S
C667        H672   1.108       .  S
C667        H673   1.107       .  S
C670        H674   1.093       .  S
C670        H675   1.105       .  S
C670        H676   1.111       .  S
C677       C2062   1.405       .  A
C677        C682   1.404       .  A
C677        H684   1.075       .  S
C678       C2061   1.405       .  A
C678       C1371   1.396       .  A
C679       C1370   1.396       .  A
C679        C680   1.387       .  A
C679        C686   1.499       .  S
C680       C2757   1.413   1_545  A
C680        H685   1.083       .  S
C681       C2756   1.413   1_455  A
C681        C682   1.414       .  A
C682        C683   1.511       .  S
C683        H687   1.102       .  S
C683        H688   1.106       .  S
C683        H689   1.100       .  S
C686        H690   1.107       .  S
C686        H691   1.105       .  S
C686        H692   1.110       .  S
Zn693       O698   2.093       .  S
Zn693       O702   1.928       .  S
Zn693       O709   1.981       .  S
Zn693      O1043   1.769       .  S
Zn694       O699   1.998       .  S
Zn694       O701   1.979       .  S
Zn694       O705   1.955       .  S
Zn694      O2081   1.920   1_554  S
Zn695       O700   1.991       .  S
Zn695       O703   1.973   1_565  S
Zn695       O706   2.002       .  S
Zn695      O1735   1.842       .  S
Zn696       O704   1.896   1_455  S
Zn696       O707   2.032       .  S
Zn696       O708   2.057   1_554  S
O697      Zn1039   1.768       .  S
O697      Zn2078   1.920   1_456  S
O697      Zn1733   1.842   1_455  S
O698       C2094   1.292       .  A
O699       C1057   1.254       .  A
O701       C1056   1.271       .  A
O702       C2096   1.261       .  A
O704        C713   1.276   1_554  A
O705       C1406   1.248       .  A
O706       C2443   1.273       .  A
O707        C714   1.259       .  A
O708        C715   1.261       .  A
C710       O2082   1.292       .  A
C710       O1047   1.271       .  A
C710        C963   1.470       .  S
C711       O1045   1.254       .  A
C711        C979   1.436       .  S
C712       O2086   1.261       .  A
C712       C1008   1.476       .  S
C713       O2436   1.272       .  A
C713        C944   1.450       .  S
C714       O1397   1.248   1_455  A
C714       C1027   1.469       .  S
C715        C992   1.471       .  S
C716       C2296   1.651       .  S
C716       C1024   1.459       .  S
C717        C928   1.640       .  S
C717       C1011   1.456       .  S
C718        C896   1.658   1_566  S
C718        C995   1.455       .  S
C718       C1065   1.458   1_565  D
C719       C1064   1.458   1_545  D
C720        C848   1.662       .  S
C720        C960   1.444       .  S
C720       C2105   1.438       .  D
C721       C1210   1.673       .  S
C721       C1293   1.473   1_455  S
C721       C2104   1.438   1_455  D
C722        C816   1.439       .  S
C722        C915   1.665       .  S
C722       C2107   1.451   1_455  D
C723        C835   1.414       .  S
C723        C931   1.675       .  S
C723       C2106   1.451       .  D
Zn724       O729   1.926       .  S
Zn724       O733   2.059       .  S
Zn724       O740   2.001       .  S
Zn724       O728   2.054       .  S
Zn725       O730   1.936       .  S
Zn725       O732   1.971       .  S
Zn725       O736   2.023       .  S
Zn725       O728   1.959       .  S
Zn726       O731   1.928       .  S
Zn726       O734   2.090       .  S
Zn726       O737   2.001       .  S
Zn726       O728   1.947       .  S
Zn727       O735   2.003       .  S
Zn727       O738   1.977       .  S
Zn727       O739   2.013       .  S
Zn727       O728   1.882       .  S
O729        C741   1.269       .  A
O730        C742   1.268       .  A
O731        C743   1.235       .  A
O732        C741   1.265       .  A
O733        C743   1.260       .  A
O734        C742   1.284       .  A
O735        C744   1.263       .  A
O736        C745   1.259       .  A
O737        C744   1.252       .  A
O738        C745   1.253       .  A
O739        C746   1.266       .  A
O740        C746   1.260       .  A
C741        C832   1.432       .  S
C742        C768   1.470       .  S
C743        C787   1.438       .  S
C744        C819   1.459       .  S
C745        C800   1.471       .  S
C746        C752   1.477       .  S
C747        C784   1.441       .  S
C747        C867   1.684       .  S
C747       C1094   1.476       .  D
C748        C803   1.441       .  S
C748        C851   1.697       .  S
C748       C1093   1.476       .  D
C749        C771   1.440       .  S
C749        C899   1.641   1_565  S
C750        C755   1.463       .  S
C750        C883   1.688       .  S
C751        C752   1.397       .  A
C751        C756   1.390       .  A
C751        H758   1.082       .  S
C752        C753   1.419       .  A
C753        C754   1.407       .  A
C753        C760   1.502       .  S
C754        C755   1.400       .  A
C754        H759   1.085       .  S
C755        C756   1.407       .  A
C756        C757   1.509       .  S
C757        H761   1.105       .  S
C757        H762   1.111       .  S
C757        H763   1.107       .  S
C760        H764   1.109       .  S
C760        H765   1.106       .  S
C760        H766   1.104       .  S
C767        C768   1.404       .  A
C767        C772   1.402       .  A
C767        H774   1.064       .  S
C768        C769   1.408       .  A
C769        C770   1.386       .  A
C769        C776   1.486       .  S
C770        C771   1.386       .  A
C770        H775   1.075       .  S
C771        C772   1.391       .  A
C772        C773   1.508       .  S
C773        H777   1.107       .  S
C773        H778   1.089       .  S
C773        H779   1.106       .  S
C776        H780   1.100       .  S
C776        H781   1.099       .  S
C776        H782   1.106       .  S
C783        C784   1.389       .  A
C783        C788   1.384       .  A
C783        H790   1.086       .  S
C784        C785   1.396       .  A
C785        C786   1.394       .  A
C785        C792   1.497       .  S
C786        C787   1.405       .  A
C786        H791   1.083       .  S
C787        C788   1.399       .  A
C788        C789   1.479       .  S
C789        H793   1.101       .  S
C789        H794   1.101       .  S
C789        H795   1.104       .  S
C792        H796   1.110       .  S
C792        H797   1.109       .  S
C792        H798   1.092       .  S
C799        C800   1.411       .  A
C799        C804   1.382       .  A
C799        H806   1.073       .  S
C800        C801   1.417       .  A
C801        C802   1.399       .  A
C801        C808   1.506       .  S
C802        C803   1.401       .  A
C802        H807   1.084       .  S
C803        C804   1.388       .  A
C804        C805   1.516       .  S
C805        H809   1.110       .  S
C805        H810   1.107       .  S
C805        H811   1.100       .  S
C808        H812   1.106       .  S
C808        H813   1.110       .  S
C808        H814   1.111       .  S
C815        C816   1.401       .  A
C815        C820   1.393       .  A
C815        H822   1.085       .  S
C816        C817   1.405       .  A
C817        C818   1.390       .  A
C817        C824   1.517       .  S
C818        C819   1.409       .  A
C818        H823   1.080       .  S
C819        C820   1.407       .  A
C820        C821   1.509       .  S
C821        H825   1.104       .  S
C821        H826   1.097       .  S
C821        H827   1.107       .  S
C824        H828   1.107       .  S
C824        H829   1.107       .  S
C824        H830   1.100       .  S
C831        C832   1.401       .  A
C831        C836   1.397       .  A
C831        H838   1.084       .  S
C832        C833   1.408       .  A
C833        C834   1.357       .  A
C833        C840   1.488       .  S
C834        C835   1.378       .  A
C834        H839   1.087       .  S
C835        C836   1.413       .  A
C836        C837   1.505       .  S
C837        H841   1.107       .  S
C837        H842   1.102       .  S
C837        H843   1.099       .  S
C840        H844   1.083       .  S
C840        H845   1.106       .  S
C840        H846   1.107       .  S
C847        C848   1.426       .  A
C847        C852   1.472       .  A
C847        H854   1.079       .  S
C848       C1195   1.440       .  A
C849       C1194   1.440       .  A
C849        C850   1.475       .  A
C849        C856   1.506       .  S
C850       C1197   1.441       .  A
C850        H855   1.064       .  S
C851       C1196   1.441       .  A
C851        C852   1.474       .  A
C852        C853   1.507       .  S
C853        H857   1.109       .  S
C853        H858   1.104       .  S
C853        H859   1.104       .  S
C856        H860   1.109       .  S
C856        H861   1.107       .  S
C856        H862   1.108       .  S
C863        C864   1.440       .  A
C863        C868   1.485       .  A
C863        H870   1.080       .  S
C864       C1067   1.673       .  S
C864       C1211   1.448   1_554  A
C865       C1210   1.448       .  A
C865        C866   1.468       .  A
C865        C872   1.490       .  S
C866       C1213   1.438       .  A
C866        H871   1.067       .  S
C867       C1212   1.439   1_554  A
C867        C868   1.455       .  A
C868        C869   1.496       .  S
C869        H873   1.105       .  S
C869        H874   1.104       .  S
C869        H875   1.105       .  S
C872        H876   1.106       .  S
C872        H877   1.105       .  S
C872        H878   1.110       .  S
C879        C884   1.490       .  A
C879        H886   1.077       .  S
C880        C881   1.451       .  A
C881        C882   1.446       .  A
C881        C888   1.510       .  S
C882        C883   1.434       .  A
C882        H887   1.069       .  S
C884        C885   1.488       .  S
C885        H889   1.110       .  S
C885        H890   1.104       .  S
C885        H891   1.092       .  S
C888        H892   1.106       .  S
C888        H893   1.107       .  S
C888        H894   1.107       .  S
C895        C900   1.474       .  A
C895        H902   1.083       .  S
C896        C897   1.444   1_545  A
C897        C898   1.460       .  A
C897        C904   1.500       .  S
C898        C899   1.437   1_565  A
C898        H903   1.074       .  S
C900        C901   1.501       .  S
C901        H905   1.111       .  S
C901        H906   1.109       .  S
C904        H909   1.103   1_554  S
C904        H910   1.106       .  S
C911       C2296   1.427   1_565  A
C911        C916   1.461       .  A
C911        H918   1.082       .  S
C912       C2100   1.651       .  S
C912       C2295   1.427   1_445  A
C912        C913   1.439   1_545  A
C913        C914   1.468       .  A
C913        C920   1.495       .  S
C914        C915   1.442       .  A
C914        H919   1.083       .  S
C915       C2300   1.452   1_455  A
C916       C2299   1.452       .  A
C916        C917   1.486       .  S
C917        H921   1.109       .  S
C917        H922   1.105       .  S
C917        H923   1.103       .  S
C920        H924   1.110       .  S
C920        H925   1.105   1_565  S
C920        H926   1.096       .  S
C927        C928   1.430       .  A
C927        C932   1.455       .  A
C927        H934   1.082       .  S
C928       C2313   1.440       .  A
C929       C2312   1.440       .  A
C929        C930   1.474       .  A
C929        C936   1.498       .  S
C930       C2315   1.446       .  A
C930        H935   1.068       .  S
C931       C2314   1.446       .  A
C931        C932   1.449       .  A
C932        C933   1.495       .  S
C933        H937   1.097       .  S
C933        H938   1.106       .  S
C933        H939   1.109       .  S
C936        H940   1.110       .  S
C936        H941   1.108       .  S
C936        H942   1.099       .  S
C943        C944   1.398       .  A
C943        C948   1.414       .  A
C943        H950   1.079       .  S
C944       C2329   1.395   1_556  A
C945       C2328   1.395   1_554  A
C945        C946   1.406       .  A
C945        C952   1.490       .  S
C946       C2331   1.427       .  A
C946        H951   1.085       .  S
C947       C1067   1.473   1_655  S
C947       C2330   1.427       .  A
C947        C948   1.423   1_554  A
C948        C949   1.497   1_655  S
C949        H953   1.110       .  S
C949       H1300   1.109       .  S
C949        H955   1.102       .  S
C952       H1302   1.108       .  S
C952        H957   1.107       .  S
C952        H958   1.107       .  S
H954       C1295   1.109       .  S
H956       C1298   1.108       .  S
C959        C960   1.363       .  A
C959        C964   1.370       .  A
C959        H966   1.089       .  S
C960       C2691   1.415       .  A
C961       C2690   1.415   1_455  A
C961        C962   1.412       .  A
C961        C968   1.503       .  S
C962       C2693   1.408       .  A
C962        H967   1.081       .  S
C963       C2692   1.408       .  A
C963        C964   1.406       .  A
C964        C965   1.455       .  S
C965        H969   1.100       .  S
C965        H970   1.096       .  S
C965        H971   1.083       .  S
C968        H972   1.108       .  S
C968       H1319   1.110       .  S
C968        H974   1.106       .  S
H973       C1314   1.110       .  S
C975       C1322   1.408       .  A
C975        C980   1.391   1_556  A
C975        H982   1.084   1_556  S
C976       C1321   1.408       .  A
C977        C978   1.363   1_565  A
C977        C984   1.517       .  S
C978        H983   1.066   1_545  S
C979       C1326   1.398       .  A
C980       C1325   1.397   1_554  A
C980        C981   1.493       .  S
C981        H985   1.104       .  S
C981        H986   1.097       .  S
C981        H987   1.110       .  S
C984        H988   1.108       .  S
C984        H989   1.105       .  S
C984        H990   1.110       .  S
C991        C996   1.391       .  A
C991        H998   1.082       .  S
C992        C993   1.405       .  A
C993        C994   1.387       .  A
C993       C1000   1.497   1_556  S
C994        C995   1.406       .  A
C994        H999   1.080   1_556  S
C996        C997   1.513       .  S
C997       H1001   1.108       .  S
C997       H1002   1.103       .  S
C997       H1003   1.091       .  S
C1000      H1004   1.109       .  S
C1000      H1005   1.108       .  S
C1000      H1006   1.111       .  S
C1007      C2392   1.411       .  A
C1007      C1012   1.381       .  A
C1007      H1014   1.077       .  S
C1008      C2391   1.411       .  A
C1009      C1010   1.399       .  A
C1009      C1016   1.501       .  S
C1010      H1015   1.073       .  S
C1011      C2396   1.386       .  A
C1012      C2395   1.386   1_455  A
C1012      C1013   1.505       .  S
C1013      H1017   1.111       .  S
C1013      H1018   1.108       .  S
C1013      H1019   1.107       .  S
C1016      H1020   1.093   1_545  S
C1016      H1021   1.104   1_545  S
C1016      H1022   1.111       .  S
C1023      C2408   1.405       .  A
C1023      C1028   1.404   1_545  A
C1023      H1030   1.075       .  S
C1024      C2407   1.405       .  A
C1025      C1026   1.387       .  A
C1025      C1032   1.499       .  S
C1026      C1719   1.413       .  A
C1026      H1031   1.083       .  S
C1027      C1718   1.413   1_465  A
C1027      C1028   1.414       .  A
C1028      C1029   1.511       .  S
C1029      H1033   1.102       .  S
C1029      H1034   1.106       .  S
C1029      H1035   1.100       .  S
C1032      H1036   1.107       .  S
C1032      H1037   1.105       .  S
C1032      H1038   1.110       .  S
Zn1039     O1044   2.093   1_556  S
Zn1039     O1048   1.928       .  S
Zn1039     O1055   1.982       .  S
Zn1040     O1045   2.000       .  S
Zn1040     O1047   1.980       .  S
Zn1040     O1051   1.955       .  S
Zn1040     O2427   1.920       .  S
Zn1041     O1046   1.990       .  S
Zn1041     O1049   1.973   1_565  S
Zn1041     O1052   2.001       .  S
Zn1041     O1389   1.842       .  S
Zn1042     O1050   1.894   1_455  S
Zn1042     O1053   2.031       .  S
Zn1042     O1054   2.057       .  S
O1043     Zn2424   1.921   1_455  S
O1043     Zn1387   1.842   1_455  S
O1044      C2440   1.292       .  A
O1048      C2442   1.261       .  A
O1050      C1059   1.276       .  A
O1051      C1752   1.248       .  A
O1052      C2097   1.272       .  A
O1053      C1060   1.259       .  A
O1054      C1061   1.261       .  A
C1056      O2428   1.292       .  A
C1056      C1309   1.470       .  S
C1057      C1325   1.436   1_554  S
C1058      O2432   1.261       .  A
C1058      C1354   1.476       .  S
C1059      O2090   1.273       .  A
C1059      C1290   1.450       .  S
C1060      O1743   1.248   1_455  A
C1060      C1373   1.468       .  S
C1061      C1338   1.471       .  S
C1062      C2642   1.651       .  S
C1062      C1370   1.458       .  S
C1063      C1274   1.640       .  S
C1063      C1357   1.457       .  S
C1064      C1242   1.658   1_565  S
C1064      C1341   1.455       .  S
C1066      C1194   1.662       .  S
C1066      C1306   1.444       .  S
C1066      C2451   1.438       .  D
C1067      C2450   1.438   1_455  D
C1068      C1162   1.439       .  S
C1068      C1261   1.665       .  S
C1068      C2453   1.451   1_455  D
C1069      C1181   1.414       .  S
C1069      C1277   1.675       .  S
C1069      C2452   1.451       .  D
Zn1070     O1075   1.925       .  S
Zn1070     O1079   2.059       .  S
Zn1070     O1086   2.001       .  S
Zn1070     O1074   2.054       .  S
Zn1071     O1076   1.935       .  S
Zn1071     O1078   1.972       .  S
Zn1071     O1082   2.023       .  S
Zn1071     O1074   1.959       .  S
Zn1072     O1077   1.928       .  S
Zn1072     O1080   2.090       .  S
Zn1072     O1083   2.002       .  S
Zn1072     O1074   1.947       .  S
Zn1073     O1081   2.004       .  S
Zn1073     O1084   1.977       .  S
Zn1073     O1085   2.013       .  S
Zn1073     O1074   1.882       .  S
O1075      C1087   1.269       .  A
O1076      C1088   1.268       .  A
O1077      C1089   1.235       .  A
O1078      C1087   1.265       .  A
O1079      C1089   1.260       .  A
O1080      C1088   1.283       .  A
O1081      C1090   1.263       .  A
O1082      C1091   1.259       .  A
O1083      C1090   1.252       .  A
O1084      C1091   1.253       .  A
O1085      C1092   1.266       .  A
O1086      C1092   1.260       .  A
C1087      C1178   1.432       .  S
C1088      C1114   1.470       .  S
C1089      C1133   1.439       .  S
C1090      C1165   1.459       .  S
C1091      C1146   1.471       .  S
C1092      C1098   1.477       .  S
C1093      C1130   1.441       .  S
C1093      C1213   1.684       .  S
C1094      C1149   1.441   1_554  S
C1094      C1197   1.697       .  S
C1095      C1117   1.440       .  S
C1095      C1245   1.641   1_565  S
C1096      C1101   1.463       .  S
C1096      C1229   1.688       .  S
C1097      C1098   1.397       .  A
C1097      C1102   1.390       .  A
C1097      H1104   1.081       .  S
C1098      C1099   1.419       .  A
C1099      C1100   1.407       .  A
C1099      C1106   1.502       .  S
C1100      C1101   1.400       .  A
C1100      H1105   1.085       .  S
C1101      C1102   1.407       .  A
C1102      C1103   1.509       .  S
C1103      H1107   1.105       .  S
C1103      H1108   1.111       .  S
C1103      H1109   1.106       .  S
C1106      H1110   1.109       .  S
C1106      H1111   1.106       .  S
C1106      H1112   1.104       .  S
C1113      C1114   1.403       .  A
C1113      C1118   1.402       .  A
C1113      H1120   1.064       .  S
C1114      C1115   1.408       .  A
C1115      C1116   1.386       .  A
C1115      C1122   1.486       .  S
C1116      C1117   1.387       .  A
C1116      H1121   1.075       .  S
C1117      C1118   1.391       .  A
C1118      C1119   1.508       .  S
C1119      H1123   1.107       .  S
C1119      H1124   1.089       .  S
C1119      H1125   1.106       .  S
C1122      H1126   1.100       .  S
C1122      H1127   1.099       .  S
C1122      H1128   1.106       .  S
C1129      C1130   1.389       .  A
C1129      C1134   1.384       .  A
C1129      H1136   1.086       .  S
C1130      C1131   1.396       .  A
C1131      C1132   1.394       .  A
C1131      C1138   1.497       .  S
C1132      C1133   1.405       .  A
C1132      H1137   1.083       .  S
C1133      C1134   1.399       .  A
C1134      C1135   1.479       .  S
C1135      H1139   1.101       .  S
C1135      H1140   1.100       .  S
C1135      H1141   1.104       .  S
C1138      H1142   1.110       .  S
C1138      H1143   1.109       .  S
C1138      H1144   1.092       .  S
C1145      C1146   1.411       .  A
C1145      C1150   1.382       .  A
C1145      H1152   1.073       .  S
C1146      C1147   1.417       .  A
C1147      C1148   1.399       .  A
C1147      C1154   1.506       .  S
C1148      C1149   1.401       .  A
C1148      H1153   1.084       .  S
C1149      C1150   1.388       .  A
C1150      C1151   1.516       .  S
C1151      H1155   1.110       .  S
C1151      H1156   1.107       .  S
C1151      H1157   1.100       .  S
C1154      H1158   1.106       .  S
C1154      H1159   1.110       .  S
C1154      H1160   1.111       .  S
C1161      C1162   1.401       .  A
C1161      C1166   1.393       .  A
C1161      H1168   1.085       .  S
C1162      C1163   1.405       .  A
C1163      C1164   1.390       .  A
C1163      C1170   1.517       .  S
C1164      C1165   1.409       .  A
C1164      H1169   1.080       .  S
C1165      C1166   1.407       .  A
C1166      C1167   1.509       .  S
C1167      H1171   1.104       .  S
C1167      H1172   1.097       .  S
C1167      H1173   1.108       .  S
C1170      H1174   1.107       .  S
C1170      H1175   1.107       .  S
C1170      H1176   1.100       .  S
C1177      C1178   1.401       .  A
C1177      C1182   1.397       .  A
C1177      H1184   1.084       .  S
C1178      C1179   1.408       .  A
C1179      C1180   1.357       .  A
C1179      C1186   1.488       .  S
C1180      C1181   1.378       .  A
C1180      H1185   1.087       .  S
C1181      C1182   1.413       .  A
C1182      C1183   1.505       .  S
C1183      H1187   1.107       .  S
C1183      H1188   1.102       .  S
C1183      H1189   1.099       .  S
C1186      H1190   1.083       .  S
C1186      H1191   1.106       .  S
C1186      H1192   1.107       .  S
C1193      C1194   1.426   1_556  A
C1193      C1198   1.472       .  A
C1193      H1200   1.079       .  S
C1195      C1196   1.475       .  A
C1195      C1202   1.506       .  S
C1196      H1201   1.064       .  S
C1197      C1198   1.474   1_554  A
C1198      C1199   1.507       .  S
C1199      H1203   1.109       .  S
C1199      H1204   1.104       .  S
C1199      H1205   1.103       .  S
C1202      H1206   1.109       .  S
C1202      H1207   1.107       .  S
C1202      H1208   1.108       .  S
C1209      C1210   1.440       .  A
C1209      C1214   1.485       .  A
C1209      H1216   1.080       .  S
C1211      C1212   1.468       .  A
C1211      C1218   1.491       .  S
C1212      H1217   1.067       .  S
C1213      C1214   1.455       .  A
C1214      C1215   1.496       .  S
C1215      H1219   1.105       .  S
C1215      H1220   1.104       .  S
C1215      H1221   1.105       .  S
C1218      H1222   1.106       .  S
C1218      H1223   1.105       .  S
C1218      H1224   1.110       .  S
C1225      C1230   1.490       .  A
C1225      H1232   1.077       .  S
C1226      C1227   1.451       .  A
C1227      C1228   1.446       .  A
C1227      C1234   1.509       .  S
C1228      C1229   1.434       .  A
C1228      H1233   1.069       .  S
C1230      C1231   1.488       .  S
C1231      H1235   1.110       .  S
C1231      H1236   1.104       .  S
C1231      H1237   1.092       .  S
C1234      H1238   1.106       .  S
C1234      H1239   1.107       .  S
C1234      H1240   1.107       .  S
C1241      C1246   1.474       .  A
C1241      H1248   1.083       .  S
C1242      C1243   1.444   1_545  A
C1243      C1244   1.460       .  A
C1243      C1250   1.500       .  S
C1244      C1245   1.437   1_565  A
C1244      H1249   1.074       .  S
C1246      C1247   1.501       .  S
C1247      H1251   1.111       .  S
C1247      H1252   1.109       .  S
C1250      H1255   1.103       .  S
C1250      H1256   1.105       .  S
C1257      C2642   1.427   1_565  A
C1257      C1262   1.462       .  A
C1257      H1264   1.082       .  S
C1258      C2446   1.651       .  S
C1258      C2641   1.427   1_445  A
C1258      C1259   1.440   1_545  A
C1259      C1260   1.468       .  A
C1259      C1266   1.495       .  S
C1260      C1261   1.442       .  A
C1260      H1265   1.083       .  S
C1261      C2646   1.453   1_455  A
C1262      C2645   1.453       .  A
C1262      C1263   1.486       .  S
C1263      H1267   1.109       .  S
C1263      H1268   1.105       .  S
C1263      H1269   1.103       .  S
C1266      H1270   1.110       .  S
C1266      H1271   1.105   1_565  S
C1266      H1272   1.096       .  S
C1273      C1274   1.430       .  A
C1273      C1278   1.455       .  A
C1273      H1280   1.082       .  S
C1274      C2659   1.440       .  A
C1275      C2658   1.440       .  A
C1275      C1276   1.475       .  A
C1275      C1282   1.498       .  S
C1276      C2661   1.446       .  A
C1276      H1281   1.068       .  S
C1277      C2660   1.446       .  A
C1277      C1278   1.449       .  A
C1278      C1279   1.494       .  S
C1279      H1283   1.097       .  S
C1279      H1284   1.106       .  S
C1279      H1285   1.109       .  S
C1282      H1286   1.110       .  S
C1282      H1287   1.108       .  S
C1282      H1288   1.099       .  S
C1289      C1290   1.398       .  A
C1289      C1294   1.414       .  A
C1289      H1296   1.079       .  S
C1290      C2675   1.395       .  A
C1291      C2674   1.395       .  A
C1291      C1292   1.406       .  A
C1291      C1298   1.490       .  S
C1292      C2677   1.426       .  A
C1292      H1297   1.085       .  S
C1293      C2676   1.426       .  A
C1293      C1294   1.423       .  A
C1294      C1295   1.497   1_655  S
C1295      H1299   1.110       .  S
C1295      H1301   1.102       .  S
C1298      H1303   1.108       .  S
C1298      H1304   1.107       .  S
C1305      C1306   1.363       .  A
C1305      C1310   1.369   1_554  A
C1305      H1312   1.090   1_554  S
C1306      C2345   1.415       .  A
C1307      C2344   1.415   1_455  A
C1307      C1308   1.411       .  A
C1307      C1314   1.503       .  S
C1308      C2347   1.408       .  A
C1308      H1313   1.081       .  S
C1309      C2346   1.408       .  A
C1309      C1310   1.406   1_554  A
C1310      C1311   1.455       .  S
C1311      H1315   1.100       .  S
C1311      H1316   1.096       .  S
C1311      H1317   1.082       .  S
C1314      H1318   1.108       .  S
C1314      H1320   1.106       .  S
C1321      C1326   1.391       .  A
C1321      H1328   1.084       .  S
C1323      C1324   1.363   1_565  A
C1323      C1330   1.517       .  S
C1324      H1329   1.067   1_545  S
C1326      C1327   1.493       .  S
C1327      H1331   1.104       .  S
C1327      H1332   1.097       .  S
C1327      H1333   1.110       .  S
C1330      H1334   1.108       .  S
C1330      H1335   1.105       .  S
C1330      H1336   1.110       .  S
C1337      C1342   1.391       .  A
C1337      H1344   1.082       .  S
C1338      C1339   1.405       .  A
C1339      C1340   1.387       .  A
C1339      C1346   1.497       .  S
C1340      C1341   1.406       .  A
C1340      H1345   1.080       .  S
C1342      C1343   1.513       .  S
C1343      H1347   1.108       .  S
C1343      H1348   1.103       .  S
C1343      H1349   1.091       .  S
C1346      H1350   1.109       .  S
C1346      H1351   1.108       .  S
C1346      H1352   1.111       .  S
C1353      C2738   1.411       .  A
C1353      C1358   1.381       .  A
C1353      H1360   1.077       .  S
C1354      C2737   1.411       .  A
C1355      C1356   1.399       .  A
C1355      C1362   1.501       .  S
C1356      H1361   1.073       .  S
C1357      C2742   1.386       .  A
C1358      C2741   1.386   1_455  A
C1358      C1359   1.506       .  S
C1359      H1363   1.111       .  S
C1359      H1364   1.108       .  S
C1359      H1365   1.107       .  S
C1362      H1366   1.093   1_545  S
C1362      H1367   1.105   1_545  S
C1362      H1368   1.111       .  S
C1369      C2754   1.405       .  A
C1369      C1374   1.404   1_545  A
C1369      H1376   1.075       .  S
C1370      C2753   1.405       .  A
C1371      C1372   1.387       .  A
C1371      C1378   1.499       .  S
C1372      C2065   1.413       .  A
C1372      H1377   1.083       .  S
C1373      C2064   1.413   1_465  A
C1373      C1374   1.414       .  A
C1374      C1375   1.511       .  S
C1375      H1379   1.102       .  S
C1375      H1380   1.106       .  S
C1375      H1381   1.100       .  S
C1378      H1382   1.107       .  S
C1378      H1383   1.105       .  S
C1378      H1384   1.110       .  S
Zn1385     O1390   2.093   1_565  S
Zn1385     O1394   1.928       .  S
Zn1385     O1401   1.981       .  S
Zn1385     O1735   1.769       .  S
Zn1386     O1391   1.999   1_565  S
Zn1386     O1393   1.979   1_665  S
Zn1386     O1397   1.955       .  S
Zn1387     O1392   1.990       .  S
Zn1387     O1395   1.972       .  S
Zn1387     O1398   2.003       .  S
Zn1388     O1396   1.895       .  S
Zn1388     O1399   2.031       .  S
Zn1388     O1400   2.057   1_554  S
Zn1388     O2081   1.969   1_554  S
O1389     Zn1731   1.768       .  S
O1389     Zn2080   1.969   1_556  S
O1391      C1749   1.254       .  A
O1392      C2096   1.260   1_655  A
O1393      C1748   1.271       .  A
O1395      C2095   1.245       .  A
O1396      C1405   1.276   1_554  A
O1399      C1406   1.259       .  A
O1400      C1407   1.261       .  A
O1401      C2445   1.244       .  A
C1402      O1739   1.271       .  A
C1402      C1655   1.470       .  S
C1403      O1737   1.254       .  A
C1403      O2087   1.245       .  A
C1403      C1671   1.436       .  S
C1404      O2084   1.260   1_455  A
C1404      C1700   1.476   1_565  S
C1405      C1636   1.450       .  S
C1406      C1719   1.469       .  S
C1407      O2439   1.244       .  A
C1407      C1684   1.471       .  S
C1408      C1716   1.458       .  S
C1408      C2101   1.449       .  D
C1409      C1620   1.640       .  S
C1409      C1703   1.456   1_455  S
C1409      C2100   1.450       .  D
C1410      C1588   1.658   1_556  S
C1410      C1687   1.455       .  S
C1410      C1757   1.458       .  D
C1411      C2264   1.680       .  S
C1411      C2360   1.436       .  S
C1411      C1756   1.458       .  D
C1412      C1540   1.662       .  S
C1412      C1652   1.444       .  S
C1413      C1902   1.673       .  S
C1413      C1985   1.474       .  S
C1414      C1508   1.439       .  S
C1414      C1607   1.665       .  S
C1415      C1527   1.414       .  S
C1415      C1623   1.675   1_655  S
Zn1416     O1421   1.925       .  S
Zn1416     O1425   2.059       .  S
Zn1416     O1432   2.001       .  S
Zn1416     O1420   2.054       .  S
Zn1417     O1422   1.936       .  S
Zn1417     O1424   1.973       .  S
Zn1417     O1428   2.023       .  S
Zn1417     O1420   1.959       .  S
Zn1418     O1423   1.928       .  S
Zn1418     O1426   2.089       .  S
Zn1418     O1429   2.001       .  S
Zn1418     O1420   1.946       .  S
Zn1419     O1427   2.004       .  S
Zn1419     O1430   1.977       .  S
Zn1419     O1431   2.012       .  S
Zn1419     O1420   1.882       .  S
O1421      C1433   1.269       .  A
O1422      C1434   1.268       .  A
O1423      C1435   1.235       .  A
O1424      C1433   1.265       .  A
O1425      C1435   1.261       .  A
O1426      C1434   1.283       .  A
O1427      C1436   1.263       .  A
O1428      C1437   1.259       .  A
O1429      C1436   1.252       .  A
O1430      C1437   1.253       .  A
O1431      C1438   1.266       .  A
O1432      C1438   1.260       .  A
C1433      C1524   1.432       .  S
C1434      C1460   1.470       .  S
C1435      C1479   1.438       .  S
C1436      C1511   1.459       .  S
C1437      C1492   1.470       .  S
C1438      C1444   1.477       .  S
C1439      C1476   1.440       .  S
C1439      C1559   1.684       .  S
C1439      C1786   1.476       .  D
C1440      C1495   1.440       .  S
C1440      C1543   1.697       .  S
C1440      C1785   1.476       .  D
C1441      C1463   1.440       .  S
C1441      C1591   1.641       .  S
C1441      C2134   1.455       .  D
C1442      C1447   1.463       .  S
C1442      C1575   1.688   1_545  S
C1442      C2133   1.455   1_545  D
C1443      C1444   1.397       .  A
C1443      C1448   1.390       .  A
C1443      H1450   1.081       .  S
C1444      C1445   1.419       .  A
C1445      C1446   1.407       .  A
C1445      C1452   1.503       .  S
C1446      C1447   1.400       .  A
C1446      H1451   1.085       .  S
C1447      C1448   1.407       .  A
C1448      C1449   1.509       .  S
C1449      H1453   1.105       .  S
C1449      H1454   1.111       .  S
C1449      H1455   1.106       .  S
C1452      H1456   1.109       .  S
C1452      H1457   1.106       .  S
C1452      H1458   1.104       .  S
C1459      C1460   1.404       .  A
C1459      C1464   1.403       .  A
C1459      H1466   1.057       .  S
C1460      C1461   1.408       .  A
C1461      C1462   1.386       .  A
C1461      C1468   1.486       .  S
C1462      C1463   1.387       .  A
C1462      H1467   1.074       .  S
C1463      C1464   1.391       .  A
C1464      C1465   1.508       .  S
C1465      H1469   1.107       .  S
C1465      H1470   1.089       .  S
C1465      H1471   1.106       .  S
C1468      H1472   1.100       .  S
C1468      H1473   1.099       .  S
C1468      H1474   1.106       .  S
C1475      C1476   1.389       .  A
C1475      C1480   1.384       .  A
C1475      H1482   1.086       .  S
C1476      C1477   1.395       .  A
C1477      C1478   1.394       .  A
C1477      C1484   1.497       .  S
C1478      C1479   1.405       .  A
C1478      H1483   1.083       .  S
C1479      C1480   1.399       .  A
C1480      C1481   1.478       .  S
C1481      H1485   1.101       .  S
C1481      H1486   1.101       .  S
C1481      H1487   1.104       .  S
C1484      H1488   1.110       .  S
C1484      H1489   1.109       .  S
C1484      H1490   1.092       .  S
C1491      C1492   1.411       .  A
C1491      C1496   1.382       .  A
C1491      H1498   1.073       .  S
C1492      C1493   1.417       .  A
C1493      C1494   1.399       .  A
C1493      C1500   1.506       .  S
C1494      C1495   1.401       .  A
C1494      H1499   1.084       .  S
C1495      C1496   1.388       .  A
C1496      C1497   1.516       .  S
C1497      H1501   1.110       .  S
C1497      H1502   1.107       .  S
C1497      H1503   1.100       .  S
C1500      H1504   1.106       .  S
C1500      H1505   1.110       .  S
C1500      H1506   1.111       .  S
C1507      C1508   1.401       .  A
C1507      C1512   1.393       .  A
C1507      H1514   1.085       .  S
C1508      C1509   1.405       .  A
C1509      C1510   1.390       .  A
C1509      C1516   1.517       .  S
C1510      C1511   1.409       .  A
C1510      H1515   1.080       .  S
C1511      C1512   1.407       .  A
C1512      C1513   1.509       .  S
C1513      H1517   1.104       .  S
C1513      H1518   1.097       .  S
C1513      H1519   1.107       .  S
C1516      H1520   1.107       .  S
C1516      H1521   1.100       .  S
C1516      H1522   1.107       .  S
C1523      C1524   1.401       .  A
C1523      C1528   1.397       .  A
C1523      H1530   1.084       .  S
C1524      C1525   1.408       .  A
C1525      C1526   1.357       .  A
C1525      C1532   1.488       .  S
C1526      C1527   1.377       .  A
C1526      H1531   1.087       .  S
C1527      C1528   1.413       .  A
C1528      C1529   1.505       .  S
C1529      H1533   1.107       .  S
C1529      H1534   1.102       .  S
C1529      H1535   1.099       .  S
C1532      H1536   1.080       .  S
C1532      H1537   1.107       .  S
C1532      H1538   1.107       .  S
C1539      C1540   1.426       .  A
C1539      C1544   1.472       .  A
C1539      H1546   1.079       .  S
C1540      C1887   1.440       .  A
C1541      C1886   1.440       .  A
C1541      C1542   1.475       .  A
C1541      C1548   1.506       .  S
C1542      C1889   1.441       .  A
C1542      H1547   1.064       .  S
C1543      C1888   1.441       .  A
C1543      C1544   1.474       .  A
C1544      C1545   1.507       .  S
C1545      H1549   1.109       .  S
C1545      H1550   1.104       .  S
C1545      H1551   1.103       .  S
C1548      H1552   1.109       .  S
C1548      H1553   1.107       .  S
C1548      H1554   1.108       .  S
C1555      C1556   1.440       .  A
C1555      C1560   1.485       .  A
C1555      H1562   1.080       .  S
C1556      C1759   1.673       .  S
C1556      C1903   1.448   1_554  A
C1557      C1902   1.448       .  A
C1557      C1558   1.468       .  A
C1557      C1564   1.491       .  S
C1558      C1905   1.439       .  A
C1558      H1563   1.067       .  S
C1559      C1904   1.438   1_554  A
C1559      C1560   1.455       .  A
C1560      C1561   1.496       .  S
C1561      H1565   1.105       .  S
C1561      H1566   1.104       .  S
C1561      H1567   1.105       .  S
C1564      H1568   1.106       .  S
C1564      H1569   1.105       .  S
C1564      H1570   1.110       .  S
C1571      C2264   1.449       .  A
C1571      C1576   1.490       .  A
C1571      H1578   1.077       .  S
C1572      C2103   1.680       .  S
C1572      C2263   1.449   1_545  A
C1572      C1573   1.451       .  A
C1573      C1574   1.446       .  A
C1573      C1580   1.509       .  S
C1574      C1575   1.434   1_545  A
C1574      H1579   1.069       .  S
C1575      C2268   1.462       .  A
C1576      C2267   1.462       .  A
C1576      C1577   1.488       .  S
C1577      H1581   1.110       .  S
C1577      H1582   1.104       .  S
C1577      H1583   1.092       .  S
C1580      H1584   1.106       .  S
C1580      H1585   1.107       .  S
C1580      H1586   1.107       .  S
C1587      C2280   1.439       .  A
C1587      C1592   1.474       .  A
C1587      H1594   1.083       .  S
C1588      C2279   1.439       .  A
C1588      C1589   1.444       .  A
C1589      C1590   1.460       .  A
C1589      C1596   1.500       .  S
C1590      C1591   1.437       .  A
C1590      H1595   1.074       .  S
C1591      C2284   1.438       .  A
C1592      C2283   1.438       .  A
C1592      C1593   1.501       .  S
C1593      H1597   1.111       .  S
C1593      H1598   1.109       .  S
C1593      H2291   1.097       .  S
C1596      H2292   1.108       .  S
C1596      H1601   1.103   1_554  S
C1596      H1602   1.105       .  S
H1599      C2285   1.097       .  S
H1600      C2288   1.108       .  S
C1603      C1608   1.461       .  A
C1603      H1610   1.082       .  S
C1604      C1605   1.439       .  A
C1605      C1606   1.468       .  A
C1605      C1612   1.495       .  S
C1606      C1607   1.442       .  A
C1606      H1611   1.083       .  S
C1608      C1609   1.486       .  S
C1609      H1613   1.109       .  S
C1609      H1614   1.105       .  S
C1609      H1615   1.103       .  S
C1612      H1616   1.110       .  S
C1612      H1617   1.105       .  S
C1612      H1618   1.096       .  S
C1619      C1620   1.430   1_655  A
C1619      C1624   1.455       .  A
C1619      H1626   1.082       .  S
C1621      C1622   1.474       .  A
C1621      C1628   1.498       .  S
C1622      H1627   1.068       .  S
C1623      C1624   1.449   1_455  A
C1624      C1625   1.495       .  S
C1625      H1629   1.097       .  S
C1625      H1630   1.106       .  S
C1625      H1631   1.109       .  S
C1628      H1632   1.110       .  S
C1628      H1633   1.108       .  S
C1628      H1634   1.099       .  S
C1635      C1636   1.398       .  A
C1635      C1640   1.414       .  A
C1635      H1642   1.079       .  S
C1637      C1638   1.406       .  A
C1637      C1644   1.490       .  S
C1638      H1643   1.085       .  S
C1639      C1759   1.474       .  S
C1639      C1640   1.423   1_554  A
C1640      C1641   1.497       .  S
C1641      H1645   1.110       .  S
C1641      H1992   1.109       .  S
C1641      H1647   1.102       .  S
C1644      H1994   1.108       .  S
C1644      H1649   1.108       .  S
C1644      H1650   1.107       .  S
H1646      C1987   1.109       .  S
H1648      C1990   1.108       .  S
C1651      C1652   1.364       .  A
C1651      C1656   1.370   1_655  A
C1651      H1658   1.089       .  S
C1653      C1654   1.412       .  A
C1653      C1660   1.503       .  S
C1654      H1659   1.081       .  S
C1655      C1656   1.406       .  A
C1656      C1657   1.456       .  S
C1657      H1661   1.100       .  S
C1657      H1662   1.096       .  S
C1657      H1663   1.083       .  S
C1660      H1664   1.108       .  S
C1660      H2011   1.110       .  S
C1660      H1666   1.106       .  S
H1665      C2006   1.110       .  S
C1667      C2014   1.408       .  A
C1667      C1672   1.391   1_556  A
C1667      H1674   1.084   1_556  S
C1668      C2103   1.435       .  S
C1668      C2013   1.408       .  A
C1668      C2361   1.402   1_545  A
C1669      C2360   1.402       .  A
C1669      C1670   1.363       .  A
C1669      C1676   1.517       .  S
C1670      C2363   1.395       .  A
C1670      H1675   1.066       .  S
C1671      C2362   1.395       .  A
C1671      C2018   1.398       .  A
C1672      C2017   1.397   1_554  A
C1672      C1673   1.493       .  S
C1673      H1677   1.105       .  S
C1673      H1678   1.097       .  S
C1673      H1679   1.110       .  S
C1676      H1680   1.108       .  S
C1676      H1681   1.105       .  S
C1676      H1682   1.110       .  S
C1683      C2722   1.415       .  A
C1683      C1688   1.391       .  A
C1683      H1690   1.082       .  S
C1684      C2721   1.415       .  A
C1684      C1685   1.405       .  A
C1685      C1686   1.387       .  A
C1685      C1692   1.497   1_556  S
C1686      C1687   1.406       .  A
C1686      H1691   1.080   1_556  S
C1687      C2726   1.396       .  A
C1688      C2725   1.396       .  A
C1688      C1689   1.513   1_565  S
C1689      H1693   1.108       .  S
C1689      H1694   1.103       .  S
C1689      H1695   1.091       .  S
C1692      H1696   1.109       .  S
C1692      H1697   1.108       .  S
C1692      H1698   1.111       .  S
C1699      C1704   1.381       .  A
C1699      H1706   1.077       .  S
C1700      C2393   1.419   1_455  A
C1701      C2392   1.419   1_655  A
C1701      C1702   1.399       .  A
C1701      C1708   1.501       .  S
C1702      C2395   1.400       .  A
C1702      H1707   1.073       .  S
C1703      C2394   1.400       .  A
C1704      C1705   1.506       .  S
C1705      H1709   1.111       .  S
C1705      H1710   1.108       .  S
C1705      H1711   1.107       .  S
C1708      H1712   1.093       .  S
C1708      H1713   1.105       .  S
C1708      H1714   1.111       .  S
C1715      C1720   1.404       .  A
C1715      H1722   1.075       .  S
C1716      C2409   1.396   1_455  A
C1717      C2408   1.396   1_655  A
C1717      C1718   1.387       .  A
C1717      C1724   1.499       .  S
C1718      H1723   1.083   1_545  S
C1719      C1720   1.414       .  A
C1720      C1721   1.511       .  S
C1721      H1725   1.102       .  S
C1721      H1726   1.106       .  S
C1721      H1727   1.100       .  S
C1724      H1728   1.107       .  S
C1724      H1729   1.105       .  S
C1724      H1730   1.110       .  S
Zn1731     O1736   2.093   1_566  S
Zn1731     O1740   1.927       .  S
Zn1731     O1747   1.982       .  S
Zn1732     O1737   1.999   1_565  S
Zn1732     O1739   1.980   1_665  S
Zn1732     O1743   1.955       .  S
Zn1733     O1738   1.990       .  S
Zn1733     O1741   1.973       .  S
Zn1733     O1744   2.002       .  S
Zn1734     O1742   1.894       .  S
Zn1734     O1745   2.031       .  S
Zn1734     O1746   2.057       .  S
Zn1734     O2427   1.970       .  S
O1735     Zn2426   1.970       .  S
O1738      C2442   1.260   1_655  A
O1741      C2441   1.245   1_556  A
O1742      C1751   1.276       .  A
O1745      C1752   1.259       .  A
O1746      C1753   1.261       .  A
O1747      C2099   1.244       .  A
C1748      C2001   1.470       .  S
C1749      O2433   1.245   1_554  A
C1749      C2017   1.436   1_554  S
C1750      O2430   1.260   1_455  A
C1750      C2046   1.476   1_565  S
C1751      C1982   1.451       .  S
C1752      C2065   1.469       .  S
C1753      O2093   1.244       .  A
C1753      C2030   1.471       .  S
C1754      C2062   1.458       .  S
C1754      C2447   1.450       .  D
C1755      C1966   1.639       .  S
C1755      C2049   1.456   1_455  S
C1755      C2446   1.449       .  D
C1756      C1934   1.658       .  S
C1756      C2033   1.455       .  S
C1757      C2610   1.680       .  S
C1757      C2706   1.435       .  S
C1758      C1886   1.662       .  S
C1758      C1998   1.444       .  S
C1760      C1854   1.439       .  S
C1760      C1953   1.665       .  S
C1761      C1873   1.414       .  S
C1761      C1969   1.675   1_655  S
Zn1762     O1767   1.926       .  S
Zn1762     O1771   2.059       .  S
Zn1762     O1778   2.001       .  S
Zn1762     O1766   2.054       .  S
Zn1763     O1768   1.935       .  S
Zn1763     O1770   1.971       .  S
Zn1763     O1774   2.023       .  S
Zn1763     O1766   1.959       .  S
Zn1764     O1769   1.928       .  S
Zn1764     O1772   2.090       .  S
Zn1764     O1775   2.001       .  S
Zn1764     O1766   1.946       .  S
Zn1765     O1773   2.004       .  S
Zn1765     O1776   1.976       .  S
Zn1765     O1777   2.013       .  S
Zn1765     O1766   1.882       .  S
O1767      C1779   1.269       .  A
O1768      C1780   1.268       .  A
O1769      C1781   1.235       .  A
O1770      C1779   1.265       .  A
O1771      C1781   1.260       .  A
O1772      C1780   1.283       .  A
O1773      C1782   1.263       .  A
O1774      C1783   1.259       .  A
O1775      C1782   1.252       .  A
O1776      C1783   1.253       .  A
O1777      C1784   1.266       .  A
O1778      C1784   1.260       .  A
C1779      C1870   1.432       .  S
C1780      C1806   1.470       .  S
C1781      C1825   1.438       .  S
C1782      C1857   1.459       .  S
C1783      C1838   1.470       .  S
C1784      C1790   1.477       .  S
C1785      C1822   1.441       .  S
C1785      C1905   1.684       .  S
C1786      C1841   1.440   1_554  S
C1786      C1889   1.697       .  S
C1787      C1809   1.440       .  S
C1787      C1937   1.641       .  S
C1787      C2480   1.455       .  D
C1788      C1793   1.463       .  S
C1788      C1921   1.688   1_545  S
C1788      C2479   1.455   1_545  D
C1789      C1790   1.397       .  A
C1789      C1794   1.390       .  A
C1789      H1796   1.081       .  S
C1790      C1791   1.419       .  A
C1791      C1792   1.407       .  A
C1791      C1798   1.503       .  S
C1792      C1793   1.400       .  A
C1792      H1797   1.085       .  S
C1793      C1794   1.407       .  A
C1794      C1795   1.509       .  S
C1795      H1799   1.105       .  S
C1795      H1800   1.111       .  S
C1795      H1801   1.106       .  S
C1798      H1802   1.109       .  S
C1798      H1803   1.106       .  S
C1798      H1804   1.104       .  S
C1805      C1806   1.404       .  A
C1805      C1810   1.402       .  A
C1805      H1812   1.064       .  S
C1806      C1807   1.408       .  A
C1807      C1808   1.386       .  A
C1807      C1814   1.486       .  S
C1808      C1809   1.386       .  A
C1808      H1813   1.075       .  S
C1809      C1810   1.391       .  A
C1810      C1811   1.508       .  S
C1811      H1815   1.107       .  S
C1811      H1816   1.089       .  S
C1811      H1817   1.106       .  S
C1814      H1818   1.100       .  S
C1814      H1819   1.099       .  S
C1814      H1820   1.106       .  S
C1821      C1822   1.389       .  A
C1821      C1826   1.384       .  A
C1821      H1828   1.086       .  S
C1822      C1823   1.396       .  A
C1823      C1824   1.394       .  A
C1823      C1830   1.497       .  S
C1824      C1825   1.405       .  A
C1824      H1829   1.083       .  S
C1825      C1826   1.399       .  A
C1826      C1827   1.479       .  S
C1827      H1831   1.101       .  S
C1827      H1832   1.101       .  S
C1827      H1833   1.103       .  S
C1830      H1834   1.110       .  S
C1830      H1835   1.109       .  S
C1830      H1836   1.092       .  S
C1837      C1838   1.411       .  A
C1837      C1842   1.382       .  A
C1837      H1844   1.073       .  S
C1838      C1839   1.417       .  A
C1839      C1840   1.399       .  A
C1839      C1846   1.506       .  S
C1840      C1841   1.401       .  A
C1840      H1845   1.084       .  S
C1841      C1842   1.388       .  A
C1842      C1843   1.516       .  S
C1843      H1847   1.100       .  S
C1843      H1848   1.110       .  S
C1843      H1849   1.107       .  S
C1846      H1850   1.106       .  S
C1846      H1851   1.110       .  S
C1846      H1852   1.111       .  S
C1853      C1854   1.401       .  A
C1853      C1858   1.393       .  A
C1853      H1860   1.085       .  S
C1854      C1855   1.405       .  A
C1855      C1856   1.390       .  A
C1855      C1862   1.517       .  S
C1856      C1857   1.409       .  A
C1856      H1861   1.080       .  S
C1857      C1858   1.407       .  A
C1858      C1859   1.509       .  S
C1859      H1863   1.104       .  S
C1859      H1864   1.097       .  S
C1859      H1865   1.107       .  S
C1862      H1866   1.107       .  S
C1862      H1867   1.100       .  S
C1862      H1868   1.107       .  S
C1869      C1870   1.401       .  A
C1869      C1874   1.397       .  A
C1869      H1876   1.084       .  S
C1870      C1871   1.408       .  A
C1871      C1872   1.357       .  A
C1871      C1878   1.488       .  S
C1872      C1873   1.378       .  A
C1872      H1877   1.087       .  S
C1873      C1874   1.413       .  A
C1874      C1875   1.505       .  S
C1875      H1879   1.107       .  S
C1875      H1880   1.102       .  S
C1875      H1881   1.099       .  S
C1878      H1882   1.083       .  S
C1878      H1883   1.106       .  S
C1878      H1884   1.107       .  S
C1885      C1886   1.426   1_556  A
C1885      C1890   1.472       .  A
C1885      H1892   1.079       .  S
C1887      C1888   1.475       .  A
C1887      C1894   1.506       .  S
C1888      H1893   1.064       .  S
C1889      C1890   1.474   1_554  A
C1890      C1891   1.507       .  S
C1891      H1895   1.109       .  S
C1891      H1896   1.104       .  S
C1891      H1897   1.103       .  S
C1894      H1898   1.109       .  S
C1894      H1899   1.107       .  S
C1894      H1900   1.108       .  S
C1901      C1902   1.440       .  A
C1901      C1906   1.485       .  A
C1901      H1908   1.080       .  S
C1903      C1904   1.468       .  A
C1903      C1910   1.490       .  S
C1904      H1909   1.067       .  S
C1905      C1906   1.455       .  A
C1906      C1907   1.496       .  S
C1907      H1911   1.105       .  S
C1907      H1912   1.104       .  S
C1907      H1913   1.105       .  S
C1910      H1914   1.106       .  S
C1910      H1915   1.105       .  S
C1910      H1916   1.110       .  S
C1917      C2610   1.449       .  A
C1917      C1922   1.490       .  A
C1917      H1924   1.077       .  S
C1918      C2449   1.680       .  S
C1918      C2609   1.450   1_545  A
C1918      C1919   1.451       .  A
C1919      C1920   1.446       .  A
C1919      C1926   1.510       .  S
C1920      C1921   1.434   1_545  A
C1920      H1925   1.069       .  S
C1921      C2614   1.462       .  A
C1922      C2613   1.462       .  A
C1922      C1923   1.488       .  S
C1923      H1927   1.110       .  S
C1923      H1928   1.104       .  S
C1923      H1929   1.092       .  S
C1926      H1930   1.106       .  S
C1926      H1931   1.107       .  S
C1926      H1932   1.107       .  S
C1933      C2626   1.439       .  A
C1933      C1938   1.474       .  A
C1933      H1940   1.083       .  S
C1934      C2625   1.439       .  A
C1934      C1935   1.444       .  A
C1935      C1936   1.460       .  A
C1935      C1942   1.500       .  S
C1936      C1937   1.437       .  A
C1936      H1941   1.074       .  S
C1937      C2630   1.438       .  A
C1938      C2629   1.439       .  A
C1938      C1939   1.501       .  S
C1939      H1943   1.111       .  S
C1939      H1944   1.109       .  S
C1939      H2637   1.096       .  S
C1942      H2638   1.108       .  S
C1942      H1947   1.103       .  S
C1942      H1948   1.105       .  S
H1945      C2631   1.097       .  S
H1946      C2634   1.108       .  S
C1949      C1954   1.462       .  A
C1949      H1956   1.082       .  S
C1950      C1951   1.439       .  A
C1951      C1952   1.468       .  A
C1951      C1958   1.495       .  S
C1952      C1953   1.442       .  A
C1952      H1957   1.083       .  S
C1954      C1955   1.486       .  S
C1955      H1959   1.109       .  S
C1955      H1960   1.105       .  S
C1955      H1961   1.103       .  S
C1958      H1962   1.110       .  S
C1958      H1963   1.105       .  S
C1958      H1964   1.096       .  S
C1965      C1966   1.430   1_655  A
C1965      C1970   1.455       .  A
C1965      H1972   1.082       .  S
C1967      C1968   1.474       .  A
C1967      C1974   1.498       .  S
C1968      H1973   1.068       .  S
C1969      C1970   1.449   1_455  A
C1970      C1971   1.495       .  S
C1971      H1975   1.097       .  S
C1971      H1976   1.106       .  S
C1971      H1977   1.109       .  S
C1974      H1978   1.110       .  S
C1974      H1979   1.108       .  S
C1974      H1980   1.099       .  S
C1981      C1982   1.398       .  A
C1981      C1986   1.414       .  A
C1981      H1988   1.079       .  S
C1983      C1984   1.406       .  A
C1983      C1990   1.491       .  S
C1984      H1989   1.085       .  S
C1985      C1986   1.423       .  A
C1986      C1987   1.497       .  S
C1987      H1991   1.110       .  S
C1987      H1993   1.102       .  S
C1990      H1995   1.107       .  S
C1990      H1996   1.107       .  S
C1997      C1998   1.363       .  A
C1997      C2002   1.370   1_654  A
C1997      H2004   1.089   1_554  S
C1999      C2000   1.411       .  A
C1999      C2006   1.503       .  S
C2000      H2005   1.081       .  S
C2001      C2002   1.406   1_554  A
C2002      C2003   1.456       .  S
C2003      H2007   1.100       .  S
C2003      H2008   1.096       .  S
C2003      H2009   1.083       .  S
C2006      H2010   1.108       .  S
C2006      H2012   1.106       .  S
C2013      C2018   1.391       .  A
C2013      H2020   1.084       .  S
C2014      C2449   1.436       .  S
C2014      C2707   1.402   1_545  A
C2015      C2706   1.402       .  A
C2015      C2016   1.363       .  A
C2015      C2022   1.517       .  S
C2016      C2709   1.395       .  A
C2016      H2021   1.067       .  S
C2017      C2708   1.395       .  A
C2018      C2019   1.493       .  S
C2019      H2023   1.104       .  S
C2019      H2024   1.097       .  S
C2019      H2025   1.110       .  S
C2022      H2026   1.108       .  S
C2022      H2027   1.105       .  S
C2022      H2028   1.110       .  S
C2029      C2376   1.415       .  A
C2029      C2034   1.391       .  A
C2029      H2036   1.082       .  S
C2030      C2375   1.415       .  A
C2030      C2031   1.405       .  A
C2031      C2032   1.387       .  A
C2031      C2038   1.497       .  S
C2032      C2033   1.406       .  A
C2032      H2037   1.080       .  S
C2033      C2380   1.396       .  A
C2034      C2379   1.396       .  A
C2034      C2035   1.513   1_565  S
C2035      H2039   1.108       .  S
C2035      H2040   1.103       .  S
C2035      H2041   1.091       .  S
C2038      H2042   1.109       .  S
C2038      H2043   1.108       .  S
C2038      H2044   1.111       .  S
C2045      C2050   1.381       .  A
C2045      H2052   1.077       .  S
C2046      C2739   1.419   1_455  A
C2047      C2738   1.419   1_655  A
C2047      C2048   1.399       .  A
C2047      C2054   1.501       .  S
C2048      C2741   1.400       .  A
C2048      H2053   1.073       .  S
C2049      C2740   1.400       .  A
C2050      C2051   1.505       .  S
C2051      H2055   1.111       .  S
C2051      H2056   1.108       .  S
C2051      H2057   1.107       .  S
C2054      H2058   1.093       .  S
C2054      H2059   1.105       .  S
C2054      H2060   1.111       .  S
C2061      C2066   1.404       .  A
C2061      H2068   1.075       .  S
C2062      C2755   1.396   1_455  A
C2063      C2754   1.396   1_655  A
C2063      C2064   1.387       .  A
C2063      C2070   1.499       .  S
C2064      H2069   1.083       .  S
C2065      C2066   1.414       .  A
C2066      C2067   1.511       .  S
C2067      H2071   1.102       .  S
C2067      H2072   1.106       .  S
C2067      H2073   1.100       .  S
C2070      H2074   1.107       .  S
C2070      H2075   1.105       .  S
C2070      H2076   1.110       .  S
Zn2077     O2082   2.093       .  S
Zn2077     O2086   1.928       .  S
Zn2077     O2093   1.981       .  S
Zn2077     O2427   1.769       .  S
Zn2078     O2083   1.998       .  S
Zn2078     O2085   1.979   1_655  S
Zn2078     O2089   1.955       .  S
Zn2079     O2084   1.990       .  S
Zn2079     O2087   1.973   1_565  S
Zn2079     O2090   2.002       .  S
Zn2080     O2088   1.896       .  S
Zn2080     O2091   2.032       .  S
Zn2080     O2092   2.057   1_554  S
O2081     Zn2423   1.768       .  S
O2083      C2441   1.254       .  A
O2085      C2440   1.271       .  A
O2088      C2097   1.276   1_554  A
O2091      C2098   1.259       .  A
O2092      C2099   1.261       .  A
C2094      O2431   1.271       .  A
C2094      C2347   1.470       .  S
C2095      O2429   1.254       .  A
C2095      C2363   1.436       .  S
C2096      C2392   1.476       .  S
C2097      C2328   1.450       .  S
C2098      C2411   1.469       .  S
C2099      C2376   1.471       .  S
C2100      C2408   1.459       .  S
C2101      C2312   1.639       .  S
C2101      C2395   1.456   1_455  S
C2102      C2280   1.658   1_566  S
C2102      C2379   1.455       .  S
C2102      C2449   1.458   1_565  D
C2103      C2448   1.458   1_545  D
C2104      C2232   1.662       .  S
C2104      C2344   1.444       .  S
C2105      C2594   1.673       .  S
C2105      C2677   1.474       .  S
C2106      C2200   1.439       .  S
C2106      C2299   1.665       .  S
C2107      C2219   1.414       .  S
C2107      C2315   1.675   1_655  S
Zn2108     O2113   1.926       .  S
Zn2108     O2117   2.059       .  S
Zn2108     O2124   2.001       .  S
Zn2108     O2112   2.054       .  S
Zn2109     O2114   1.936       .  S
Zn2109     O2116   1.971       .  S
Zn2109     O2120   2.023       .  S
Zn2109     O2112   1.959       .  S
Zn2110     O2115   1.928       .  S
Zn2110     O2118   2.090       .  S
Zn2110     O2121   2.001       .  S
Zn2110     O2112   1.947       .  S
Zn2111     O2119   2.004       .  S
Zn2111     O2122   1.977       .  S
Zn2111     O2123   2.013       .  S
Zn2111     O2112   1.882       .  S
O2113      C2125   1.269       .  A
O2114      C2126   1.268       .  A
O2115      C2127   1.235       .  A
O2116      C2125   1.265       .  A
O2117      C2127   1.260       .  A
O2118      C2126   1.284       .  A
O2119      C2128   1.263       .  A
O2120      C2129   1.259       .  A
O2121      C2128   1.252       .  A
O2122      C2129   1.253       .  A
O2123      C2130   1.266       .  A
O2124      C2130   1.260       .  A
C2125      C2216   1.432       .  S
C2126      C2152   1.470       .  S
C2127      C2171   1.438       .  S
C2128      C2203   1.459       .  S
C2129      C2184   1.471       .  S
C2130      C2136   1.477       .  S
C2131      C2168   1.441       .  S
C2131      C2251   1.684       .  S
C2131      C2478   1.476       .  D
C2132      C2187   1.441       .  S
C2132      C2235   1.697       .  S
C2132      C2477   1.476       .  D
C2133      C2155   1.440       .  S
C2133      C2283   1.641   1_565  S
C2134      C2139   1.463       .  S
C2134      C2267   1.688       .  S
C2135      C2136   1.397       .  A
C2135      C2140   1.390       .  A
C2135      H2142   1.082       .  S
C2136      C2137   1.419       .  A
C2137      C2138   1.407       .  A
C2137      C2144   1.502       .  S
C2138      C2139   1.400       .  A
C2138      H2143   1.085       .  S
C2139      C2140   1.407       .  A
C2140      C2141   1.509       .  S
C2141      H2145   1.105       .  S
C2141      H2146   1.111       .  S
C2141      H2147   1.107       .  S
C2144      H2148   1.109       .  S
C2144      H2149   1.106       .  S
C2144      H2150   1.104       .  S
C2151      C2152   1.404       .  A
C2151      C2156   1.402       .  A
C2151      H2158   1.064       .  S
C2152      C2153   1.408       .  A
C2153      C2154   1.386       .  A
C2153      C2160   1.486       .  S
C2154      C2155   1.386       .  A
C2154      H2159   1.075       .  S
C2155      C2156   1.391       .  A
C2156      C2157   1.508       .  S
C2157      H2161   1.107       .  S
C2157      H2162   1.089       .  S
C2157      H2163   1.106       .  S
C2160      H2164   1.100       .  S
C2160      H2165   1.099       .  S
C2160      H2166   1.106       .  S
C2167      C2168   1.389       .  A
C2167      C2172   1.384       .  A
C2167      H2174   1.086       .  S
C2168      C2169   1.396       .  A
C2169      C2170   1.394       .  A
C2169      C2176   1.497       .  S
C2170      C2171   1.405       .  A
C2170      H2175   1.083       .  S
C2171      C2172   1.399       .  A
C2172      C2173   1.479       .  S
C2173      H2177   1.101       .  S
C2173      H2178   1.101       .  S
C2173      H2179   1.103       .  S
C2176      H2180   1.110       .  S
C2176      H2181   1.109       .  S
C2176      H2182   1.092       .  S
C2183      C2184   1.411       .  A
C2183      C2188   1.382       .  A
C2183      H2190   1.073       .  S
C2184      C2185   1.417       .  A
C2185      C2186   1.399       .  A
C2185      C2192   1.506       .  S
C2186      C2187   1.401       .  A
C2186      H2191   1.084       .  S
C2187      C2188   1.388       .  A
C2188      C2189   1.516       .  S
C2189      H2193   1.110       .  S
C2189      H2194   1.107       .  S
C2189      H2195   1.100       .  S
C2192      H2196   1.106       .  S
C2192      H2197   1.110       .  S
C2192      H2198   1.111       .  S
C2199      C2200   1.401       .  A
C2199      C2204   1.393       .  A
C2199      H2206   1.085       .  S
C2200      C2201   1.405       .  A
C2201      C2202   1.390       .  A
C2201      C2208   1.517       .  S
C2202      C2203   1.409       .  A
C2202      H2207   1.080       .  S
C2203      C2204   1.407       .  A
C2204      C2205   1.509       .  S
C2205      H2209   1.104       .  S
C2205      H2210   1.097       .  S
C2205      H2211   1.107       .  S
C2208      H2212   1.107       .  S
C2208      H2213   1.107       .  S
C2208      H2214   1.100       .  S
C2215      C2216   1.401       .  A
C2215      C2220   1.397       .  A
C2215      H2222   1.084       .  S
C2216      C2217   1.408       .  A
C2217      C2218   1.357       .  A
C2217      C2224   1.488       .  S
C2218      C2219   1.378       .  A
C2218      H2223   1.087       .  S
C2219      C2220   1.413       .  A
C2220      C2221   1.505       .  S
C2221      H2225   1.107       .  S
C2221      H2226   1.102       .  S
C2221      H2227   1.099       .  S
C2224      H2228   1.083       .  S
C2224      H2229   1.106       .  S
C2224      H2230   1.107       .  S
C2231      C2232   1.426       .  A
C2231      C2236   1.472       .  A
C2231      H2238   1.079       .  S
C2232      C2579   1.440       .  A
C2233      C2578   1.440       .  A
C2233      C2234   1.475       .  A
C2233      C2240   1.506       .  S
C2234      C2581   1.441       .  A
C2234      H2239   1.064       .  S
C2235      C2580   1.441       .  A
C2235      C2236   1.474       .  A
C2236      C2237   1.507       .  S
C2237      H2241   1.109       .  S
C2237      H2242   1.104       .  S
C2237      H2243   1.104       .  S
C2240      H2244   1.109       .  S
C2240      H2245   1.107       .  S
C2240      H2246   1.108       .  S
C2247      C2248   1.440       .  A
C2247      C2252   1.485       .  A
C2247      H2254   1.080       .  S
C2248      C2451   1.673       .  S
C2248      C2595   1.448   1_554  A
C2249      C2594   1.448       .  A
C2249      C2250   1.468       .  A
C2249      C2256   1.490       .  S
C2250      C2597   1.438       .  A
C2250      H2255   1.067       .  S
C2251      C2596   1.439   1_554  A
C2251      C2252   1.455       .  A
C2252      C2253   1.496       .  S
C2253      H2257   1.105       .  S
C2253      H2258   1.104       .  S
C2253      H2259   1.105       .  S
C2256      H2260   1.106       .  S
C2256      H2261   1.105       .  S
C2256      H2262   1.110       .  S
C2263      C2268   1.490       .  A
C2263      H2270   1.077       .  S
C2264      C2265   1.451       .  A
C2265      C2266   1.446       .  A
C2265      C2272   1.510       .  S
C2266      C2267   1.434       .  A
C2266      H2271   1.069       .  S
C2268      C2269   1.488       .  S
C2269      H2273   1.110       .  S
C2269      H2274   1.104       .  S
C2269      H2275   1.092       .  S
C2272      H2276   1.106       .  S
C2272      H2277   1.107       .  S
C2272      H2278   1.107       .  S
C2279      C2284   1.474       .  A
C2279      H2286   1.083       .  S
C2280      C2281   1.444   1_545  A
C2281      C2282   1.460       .  A
C2281      C2288   1.500       .  S
C2282      C2283   1.437   1_565  A
C2282      H2287   1.074       .  S
C2284      C2285   1.501       .  S
C2285      H2289   1.111       .  S
C2285      H2290   1.109       .  S
C2288      H2293   1.103   1_554  S
C2288      H2294   1.106       .  S
C2295      C2300   1.461       .  A
C2295      H2302   1.082       .  S
C2296      C2297   1.439   1_545  A
C2297      C2298   1.468       .  A
C2297      C2304   1.495       .  S
C2298      C2299   1.442       .  A
C2298      H2303   1.083       .  S
C2300      C2301   1.486       .  S
C2301      H2305   1.109       .  S
C2301      H2306   1.105       .  S
C2301      H2307   1.103       .  S
C2304      H2308   1.110       .  S
C2304      H2309   1.105   1_565  S
C2304      H2310   1.096       .  S
C2311      C2312   1.430   1_655  A
C2311      C2316   1.455       .  A
C2311      H2318   1.082       .  S
C2313      C2314   1.474       .  A
C2313      C2320   1.498       .  S
C2314      H2319   1.068       .  S
C2315      C2316   1.449   1_455  A
C2316      C2317   1.495       .  S
C2317      H2321   1.097       .  S
C2317      H2322   1.106       .  S
C2317      H2323   1.109       .  S
C2320      H2324   1.110       .  S
C2320      H2325   1.108       .  S
C2320      H2326   1.099       .  S
C2327      C2328   1.398       .  A
C2327      C2332   1.414       .  A
C2327      H2334   1.079       .  S
C2329      C2330   1.406       .  A
C2329      C2336   1.490       .  S
C2330      H2335   1.085       .  S
C2331      C2451   1.473       .  S
C2331      C2332   1.423   1_554  A
C2332      C2333   1.497       .  S
C2333      H2337   1.110       .  S
C2333      H2684   1.109       .  S
C2333      H2339   1.102       .  S
C2336      H2686   1.108       .  S
C2336      H2341   1.107       .  S
C2336      H2342   1.107       .  S
H2338      C2679   1.109       .  S
H2340      C2682   1.108       .  S
C2343      C2344   1.363       .  A
C2343      C2348   1.370   1_655  A
C2343      H2350   1.089       .  S
C2345      C2346   1.412       .  A
C2345      C2352   1.503       .  S
C2346      H2351   1.081       .  S
C2347      C2348   1.406       .  A
C2348      C2349   1.455       .  S
C2349      H2353   1.100       .  S
C2349      H2354   1.095       .  S
C2349      H2355   1.083       .  S
C2352      H2356   1.108       .  S
C2352      H2703   1.110       .  S
C2352      H2358   1.106       .  S
H2357      C2698   1.110       .  S
C2359      C2706   1.408       .  A
C2359      C2364   1.391   1_556  A
C2359      H2366   1.084   1_556  S
C2360      C2705   1.408       .  A
C2361      C2362   1.363   1_565  A
C2361      C2368   1.517       .  S
C2362      H2367   1.066   1_545  S
C2363      C2710   1.398       .  A
C2364      C2709   1.397   1_554  A
C2364      C2365   1.493       .  S
C2365      H2369   1.104       .  S
C2365      H2370   1.097       .  S
C2365      H2371   1.110       .  S
C2368      H2372   1.108       .  S
C2368      H2373   1.105       .  S
C2368      H2374   1.110       .  S
C2375      C2380   1.391       .  A
C2375      H2382   1.082       .  S
C2376      C2377   1.405       .  A
C2377      C2378   1.387       .  A
C2377      C2384   1.497   1_556  S
C2378      C2379   1.406       .  A
C2378      H2383   1.080   1_556  S
C2380      C2381   1.513       .  S
C2381      H2385   1.108       .  S
C2381      H2386   1.103       .  S
C2381      H2387   1.091       .  S
C2384      H2388   1.109       .  S
C2384      H2389   1.108       .  S
C2384      H2390   1.111       .  S
C2391      C2396   1.381       .  A
C2391      H2398   1.077       .  S
C2393      C2394   1.399       .  A
C2393      C2400   1.501       .  S
C2394      H2399   1.073       .  S
C2396      C2397   1.505       .  S
C2397      H2401   1.111       .  S
C2397      H2402   1.108       .  S
C2397      H2403   1.107       .  S
C2400      H2404   1.093   1_545  S
C2400      H2405   1.104   1_545  S
C2400      H2406   1.111       .  S
C2407      C2412   1.404   1_545  A
C2407      H2414   1.075       .  S
C2409      C2410   1.387       .  A
C2409      C2416   1.499       .  S
C2410      H2415   1.083       .  S
C2411      C2412   1.414       .  A
C2412      C2413   1.511       .  S
C2413      H2417   1.102       .  S
C2413      H2418   1.106       .  S
C2413      H2419   1.100       .  S
C2416      H2420   1.107       .  S
C2416      H2421   1.105       .  S
C2416      H2422   1.110       .  S
Zn2423     O2428   2.093   1_556  S
Zn2423     O2432   1.928       .  S
Zn2423     O2439   1.982       .  S
Zn2424     O2429   2.000       .  S
Zn2424     O2431   1.980   1_655  S
Zn2424     O2435   1.955       .  S
Zn2425     O2430   1.990       .  S
Zn2425     O2433   1.973   1_565  S
Zn2425     O2436   2.001       .  S
Zn2426     O2434   1.894       .  S
Zn2426     O2437   2.031       .  S
Zn2426     O2438   2.057       .  S
O2434      C2443   1.276       .  A
O2437      C2444   1.259       .  A
O2438      C2445   1.261       .  A
C2440      C2693   1.470       .  S
C2441      C2709   1.436   1_554  S
C2442      C2738   1.476       .  S
C2443      C2674   1.450       .  S
C2444      C2757   1.468       .  S
C2445      C2722   1.471       .  S
C2446      C2754   1.458       .  S
C2447      C2658   1.640       .  S
C2447      C2741   1.457   1_455  S
C2448      C2626   1.658   1_565  S
C2448      C2725   1.455       .  S
C2450      C2578   1.662       .  S
C2450      C2690   1.444       .  S
C2452      C2546   1.439       .  S
C2452      C2645   1.665       .  S
C2453      C2565   1.414       .  S
C2453      C2661   1.675   1_655  S
Zn2454     O2459   1.925       .  S
Zn2454     O2463   2.059       .  S
Zn2454     O2470   2.001       .  S
Zn2454     O2458   2.054       .  S
Zn2455     O2460   1.935       .  S
Zn2455     O2462   1.972       .  S
Zn2455     O2466   2.023       .  S
Zn2455     O2458   1.959       .  S
Zn2456     O2461   1.928       .  S
Zn2456     O2464   2.090       .  S
Zn2456     O2467   2.002       .  S
Zn2456     O2458   1.947       .  S
Zn2457     O2465   2.004       .  S
Zn2457     O2468   1.977       .  S
Zn2457     O2469   2.013       .  S
Zn2457     O2458   1.882       .  S
O2459      C2471   1.269       .  A
O2460      C2472   1.268       .  A
O2461      C2473   1.235       .  A
O2462      C2471   1.265       .  A
O2463      C2473   1.260       .  A
O2464      C2472   1.283       .  A
O2465      C2474   1.263       .  A
O2466      C2475   1.259       .  A
O2467      C2474   1.252       .  A
O2468      C2475   1.253       .  A
O2469      C2476   1.266       .  A
O2470      C2476   1.260       .  A
C2471      C2562   1.432       .  S
C2472      C2498   1.470       .  S
C2473      C2517   1.439       .  S
C2474      C2549   1.459       .  S
C2475      C2530   1.471       .  S
C2476      C2482   1.477       .  S
C2477      C2514   1.441       .  S
C2477      C2597   1.684       .  S
C2478      C2533   1.441   1_554  S
C2478      C2581   1.697       .  S
C2479      C2501   1.440       .  S
C2479      C2629   1.641   1_565  S
C2480      C2485   1.463       .  S
C2480      C2613   1.688       .  S
C2481      C2482   1.397       .  A
C2481      C2486   1.390       .  A
C2481      H2488   1.081       .  S
C2482      C2483   1.419       .  A
C2483      C2484   1.407       .  A
C2483      C2490   1.502       .  S
C2484      C2485   1.400       .  A
C2484      H2489   1.085       .  S
C2485      C2486   1.407       .  A
C2486      C2487   1.509       .  S
C2487      H2491   1.105       .  S
C2487      H2492   1.111       .  S
C2487      H2493   1.106       .  S
C2490      H2494   1.109       .  S
C2490      H2495   1.106       .  S
C2490      H2496   1.104       .  S
C2497      C2498   1.403       .  A
C2497      C2502   1.402       .  A
C2497      H2504   1.064       .  S
C2498      C2499   1.408       .  A
C2499      C2500   1.386       .  A
C2499      C2506   1.486       .  S
C2500      C2501   1.387       .  A
C2500      H2505   1.075       .  S
C2501      C2502   1.391       .  A
C2502      C2503   1.508       .  S
C2503      H2507   1.107       .  S
C2503      H2508   1.089       .  S
C2503      H2509   1.106       .  S
C2506      H2510   1.100       .  S
C2506      H2511   1.099       .  S
C2506      H2512   1.106       .  S
C2513      C2514   1.389       .  A
C2513      C2518   1.384       .  A
C2513      H2520   1.086       .  S
C2514      C2515   1.396       .  A
C2515      C2516   1.394       .  A
C2515      C2522   1.497       .  S
C2516      C2517   1.405       .  A
C2516      H2521   1.083       .  S
C2517      C2518   1.399       .  A
C2518      C2519   1.479       .  S
C2519      H2523   1.101       .  S
C2519      H2524   1.100       .  S
C2519      H2525   1.104       .  S
C2522      H2526   1.110       .  S
C2522      H2527   1.109       .  S
C2522      H2528   1.092       .  S
C2529      C2530   1.411       .  A
C2529      C2534   1.382       .  A
C2529      H2536   1.073       .  S
C2530      C2531   1.417       .  A
C2531      C2532   1.399       .  A
C2531      C2538   1.506       .  S
C2532      C2533   1.401       .  A
C2532      H2537   1.084       .  S
C2533      C2534   1.388       .  A
C2534      C2535   1.516       .  S
C2535      H2539   1.110       .  S
C2535      H2540   1.107       .  S
C2535      H2541   1.100       .  S
C2538      H2542   1.106       .  S
C2538      H2543   1.110       .  S
C2538      H2544   1.111       .  S
C2545      C2546   1.401       .  A
C2545      C2550   1.393       .  A
C2545      H2552   1.085       .  S
C2546      C2547   1.405       .  A
C2547      C2548   1.390       .  A
C2547      C2554   1.517       .  S
C2548      C2549   1.409       .  A
C2548      H2553   1.080       .  S
C2549      C2550   1.407       .  A
C2550      C2551   1.509       .  S
C2551      H2555   1.104       .  S
C2551      H2556   1.097       .  S
C2551      H2557   1.108       .  S
C2554      H2558   1.107       .  S
C2554      H2559   1.107       .  S
C2554      H2560   1.100       .  S
C2561      C2562   1.401       .  A
C2561      C2566   1.397       .  A
C2561      H2568   1.084       .  S
C2562      C2563   1.408       .  A
C2563      C2564   1.357       .  A
C2563      C2570   1.488       .  S
C2564      C2565   1.378       .  A
C2564      H2569   1.087       .  S
C2565      C2566   1.413       .  A
C2566      C2567   1.505       .  S
C2567      H2571   1.107       .  S
C2567      H2572   1.102       .  S
C2567      H2573   1.099       .  S
C2570      H2574   1.083       .  S
C2570      H2575   1.106       .  S
C2570      H2576   1.107       .  S
C2577      C2578   1.426   1_556  A
C2577      C2582   1.472       .  A
C2577      H2584   1.079       .  S
C2579      C2580   1.475       .  A
C2579      C2586   1.506       .  S
C2580      H2585   1.064       .  S
C2581      C2582   1.474   1_554  A
C2582      C2583   1.507       .  S
C2583      H2587   1.109       .  S
C2583      H2588   1.104       .  S
C2583      H2589   1.103       .  S
C2586      H2590   1.109       .  S
C2586      H2591   1.107       .  S
C2586      H2592   1.108       .  S
C2593      C2594   1.440       .  A
C2593      C2598   1.485       .  A
C2593      H2600   1.080       .  S
C2595      C2596   1.468       .  A
C2595      C2602   1.491       .  S
C2596      H2601   1.067       .  S
C2597      C2598   1.455       .  A
C2598      C2599   1.496       .  S
C2599      H2603   1.105       .  S
C2599      H2604   1.104       .  S
C2599      H2605   1.105       .  S
C2602      H2606   1.106       .  S
C2602      H2607   1.105       .  S
C2602      H2608   1.110       .  S
C2609      C2614   1.490       .  A
C2609      H2616   1.077       .  S
C2610      C2611   1.451       .  A
C2611      C2612   1.446       .  A
C2611      C2618   1.509       .  S
C2612      C2613   1.434       .  A
C2612      H2617   1.069       .  S
C2614      C2615   1.488       .  S
C2615      H2619   1.110       .  S
C2615      H2620   1.104       .  S
C2615      H2621   1.092       .  S
C2618      H2622   1.106       .  S
C2618      H2623   1.107       .  S
C2618      H2624   1.107       .  S
C2625      C2630   1.474       .  A
C2625      H2632   1.083       .  S
C2626      C2627   1.444   1_545  A
C2627      C2628   1.460       .  A
C2627      C2634   1.500       .  S
C2628      C2629   1.437   1_565  A
C2628      H2633   1.074       .  S
C2630      C2631   1.501       .  S
C2631      H2635   1.111       .  S
C2631      H2636   1.109       .  S
C2634      H2639   1.103       .  S
C2634      H2640   1.105       .  S
C2641      C2646   1.462       .  A
C2641      H2648   1.082       .  S
C2642      C2643   1.440   1_545  A
C2643      C2644   1.468       .  A
C2643      C2650   1.495       .  S
C2644      C2645   1.442       .  A
C2644      H2649   1.083       .  S
C2646      C2647   1.486       .  S
C2647      H2651   1.109       .  S
C2647      H2652   1.105       .  S
C2647      H2653   1.103       .  S
C2650      H2654   1.110       .  S
C2650      H2655   1.105   1_565  S
C2650      H2656   1.096       .  S
C2657      C2658   1.430   1_655  A
C2657      C2662   1.455       .  A
C2657      H2664   1.082       .  S
C2659      C2660   1.474       .  A
C2659      C2666   1.498       .  S
C2660      H2665   1.068       .  S
C2661      C2662   1.449   1_455  A
C2662      C2663   1.494       .  S
C2663      H2667   1.097       .  S
C2663      H2668   1.106       .  S
C2663      H2669   1.109       .  S
C2666      H2670   1.110       .  S
C2666      H2671   1.108       .  S
C2666      H2672   1.099       .  S
C2673      C2674   1.398       .  A
C2673      C2678   1.414       .  A
C2673      H2680   1.079       .  S
C2675      C2676   1.406       .  A
C2675      C2682   1.490       .  S
C2676      H2681   1.085       .  S
C2677      C2678   1.423       .  A
C2678      C2679   1.497       .  S
C2679      H2683   1.110       .  S
C2679      H2685   1.102       .  S
C2682      H2687   1.108       .  S
C2682      H2688   1.107       .  S
C2689      C2690   1.363       .  A
C2689      C2694   1.369   1_654  A
C2689      H2696   1.090   1_554  S
C2691      C2692   1.411       .  A
C2691      C2698   1.503       .  S
C2692      H2697   1.081       .  S
C2693      C2694   1.406   1_554  A
C2694      C2695   1.455       .  S
C2695      H2699   1.100       .  S
C2695      H2700   1.096       .  S
C2695      H2701   1.082       .  S
C2698      H2702   1.108       .  S
C2698      H2704   1.106       .  S
C2705      C2710   1.391       .  A
C2705      H2712   1.084       .  S
C2707      C2708   1.363   1_565  A
C2707      C2714   1.517       .  S
C2708      H2713   1.067   1_545  S
C2710      C2711   1.493       .  S
C2711      H2715   1.104       .  S
C2711      H2716   1.097       .  S
C2711      H2717   1.110       .  S
C2714      H2718   1.108       .  S
C2714      H2719   1.105       .  S
C2714      H2720   1.110       .  S
C2721      C2726   1.391       .  A
C2721      H2728   1.082       .  S
C2722      C2723   1.405       .  A
C2723      C2724   1.387       .  A
C2723      C2730   1.497       .  S
C2724      C2725   1.406       .  A
C2724      H2729   1.080       .  S
C2726      C2727   1.513       .  S
C2727      H2731   1.108       .  S
C2727      H2732   1.103       .  S
C2727      H2733   1.091       .  S
C2730      H2734   1.109       .  S
C2730      H2735   1.108       .  S
C2730      H2736   1.111       .  S
C2737      C2742   1.381       .  A
C2737      H2744   1.077       .  S
C2739      C2740   1.399       .  A
C2739      C2746   1.501       .  S
C2740      H2745   1.073       .  S
C2742      C2743   1.506       .  S
C2743      H2747   1.111       .  S
C2743      H2748   1.108       .  S
C2743      H2749   1.107       .  S
C2746      H2750   1.093   1_545  S
C2746      H2751   1.105   1_545  S
C2746      H2752   1.111       .  S
C2753      C2758   1.404   1_545  A
C2753      H2760   1.075       .  S
C2755      C2756   1.387       .  A
C2755      C2762   1.499       .  S
C2756      H2761   1.083       .  S
C2757      C2758   1.414       .  A
C2758      C2759   1.511       .  S
C2759      H2763   1.102       .  S
C2759      H2764   1.106       .  S
C2759      H2765   1.100       .  S
C2762      H2766   1.107       .  S
C2762      H2767   1.105       .  S
C2762      H2768   1.110       .  S
