geometry optimzed in LAMMPS
_audit_creation_date              2020-12-01 
_audit_creation_method            'lammps2cif' 
_symmetry_space_group_name_H-M    'P1' 
_symmetry_Int_Tables_number       1 
_symmetry_cell_setting            triclinic 
loop_ 
_symmetry_equiv_pos_as_xyz 
  x,y,z 
_cell_length_a                    57.68075325 
_cell_length_b                    57.65972620842423 
_cell_length_c                    57.64243272805563 
_cell_angle_alpha                 89.88701167214145 
_cell_angle_beta                  90.07572319865467 
_cell_angle_gamma                 89.76267385886742 
loop_ 
_atom_site_label 
_atom_site_type_symbol 
_atom_site_fract_x 
_atom_site_fract_y 
_atom_site_fract_z 
_atom_site_charge 
C1          C  0.29696555  0.87958870  0.65106733     0.42000
N2          N  0.33448085  0.87715711  0.65362880     0.00900
C3          C  0.38817594  0.81937632  0.74458092    -0.06900
H4          H  0.33358904  0.89000103  0.76921697     0.06400
C5          C  0.38854692  0.94195114  0.72506718    -0.07300
Co6        Co  0.34473707  0.84546176  0.69370716     0.74200
N7          N  0.34224698  0.87223712  0.73742876    -0.26500
Co8        Co  0.37815911  0.87165517  0.73508663     0.74100
C9          C  0.37565619  0.94304739  0.74657725     0.42100
N10         N  0.38683759  0.92364613  0.66974597     0.00600
N11         N  0.37904304  0.90758975  0.73660450     0.00700
N12         N  0.36501988  0.80279187  0.71779151    -0.47300
H13         H  0.29170851  0.85610146  0.68239931     0.06400
N14         N  0.32951743  0.86204186  0.72150721     0.00900
N15         N  0.41386384  0.87100779  0.73185402     0.00700
C16         C  0.45025335  0.86548540  0.73771477     0.42300
N17         N  0.37354730  0.91492816  0.65321857    -0.25900
C18         C  0.35883193  0.80681592  0.66241889    -0.06800
N19         N  0.31732012  0.88632947  0.64077891    -0.47000
N20         N  0.42884783  0.86061411  0.74583144    -0.47300
C21         C  0.37136690  0.80325708  0.64128974     0.42100
N22         N  0.36447011  0.82570513  0.71636170     0.00900
N23         N  0.40962490  0.87726966  0.64832135    -0.25900
N24         N  0.32589173  0.86494488  0.67103344    -0.26400
N25         N  0.42078474  0.88765760  0.66533626     0.00600
H26         H  0.42271117  0.85985809  0.61777975     0.06500
H27         H  0.45973032  0.88905165  0.70683407     0.06500
N28         N  0.37745228  0.83580226  0.73211900    -0.26500
N29         N  0.38957707  0.91940141  0.72018163    -0.26100
N30         N  0.37076297  0.83996785  0.64899159     0.00900
C31         C  0.30490278  0.87496955  0.74588274     0.42300
C32         C  0.36426476  0.93337519  0.64165985    -0.07400
N33         N  0.42405717  0.88297950  0.71539146    -0.26100
H34         H  0.39615661  0.95576042  0.71494663     0.06500
N35         N  0.30706438  0.86303455  0.72598390    -0.47300
H36         H  0.35277863  0.93229103  0.62686333     0.06500
C37         C  0.44912745  0.87610938  0.64394858     0.42200
C38         C  0.30293788  0.86549690  0.67071190    -0.06900
Co39       Co  0.37201463  0.87743272  0.64971954     0.73800
N40         N  0.38768886  0.94653863  0.66997980    -0.47000
C41         C  0.38017543  0.79744355  0.73484020     0.42400
N42         N  0.37878052  0.82448114  0.63364537    -0.47000
Co43       Co  0.40535162  0.90348170  0.69261070     0.73900
C44         C  0.44698295  0.88043213  0.71748097    -0.07400
C45         C  0.32817009  0.88112658  0.75363168    -0.06900
N46         N  0.35958634  0.82947183  0.66601618    -0.26400
N47         N  0.37055754  0.92113051  0.75305446    -0.47200
H48         H  0.39927175  0.82239192  0.75939241     0.06400
C49         C  0.42627346  0.86911677  0.63363137    -0.07300
Cl50       Cl  0.37493650  0.87459147  0.69244284    -0.50300
C51         C  0.37391158  0.95448581  0.65303082     0.42200
H52         H  0.35059070  0.79423179  0.67360000     0.06400
N53         N  0.44343535  0.88742287  0.66329032    -0.47000
C54         C  0.23119851  0.95180610  0.87926516     0.42000
N55         N  0.20874376  0.92600003  0.89332236     0.00900
C56         C  0.21029318  0.80835296  0.87540231    -0.06900
H57         H  0.19966693  0.85974083  0.79929902     0.06400
C58         C  0.12579685  0.88753615  0.83011943    -0.07300
Co59       Co  0.22453764  0.87842319  0.88199387     0.74200
N60         N  0.20657926  0.86652845  0.83542426    -0.26500
Co61       Co  0.18149483  0.84880452  0.85377912     0.74100
C62         C  0.13601864  0.87924048  0.80790313     0.42100
N63         N  0.14065897  0.91698943  0.88470016     0.00600
N64         N  0.15598363  0.86651780  0.83666388     0.00700
N65         N  0.23828976  0.82867824  0.89356564    -0.47300
H66         H  0.25450928  0.92423754  0.86213142     0.06400
N67         N  0.22302730  0.87803395  0.84614736     0.00900
N68         N  0.15649063  0.83174151  0.87194602     0.00700
C69         C  0.13748430  0.80309098  0.88552376     0.42300
N70         N  0.15808025  0.92664963  0.89595680    -0.25900
C71         C  0.23932715  0.86909926  0.93306564    -0.06800
N72         N  0.21236587  0.94862436  0.89268592    -0.47000
N73         N  0.15530701  0.80895247  0.87209702    -0.47300
C74         C  0.23016835  0.87567354  0.95566911     0.42100
N75         N  0.22365029  0.84253258  0.88258772     0.00900
N76         N  0.15881983  0.89226946  0.93087444    -0.25900
N77         N  0.22437255  0.91417993  0.88164015    -0.26400
N78         N  0.14121648  0.88082409  0.92185429     0.00600
H79         H  0.16891116  0.90206189  0.96515683     0.06500
H80         H  0.11247342  0.82774014  0.90531489     0.06500
N81         N  0.20713064  0.83113598  0.87184776    -0.26500
N82         N  0.13948132  0.87855160  0.84712179    -0.26100
N83         N  0.20900342  0.89063295  0.92940800     0.00900
C84         C  0.23064947  0.88233500  0.81004885     0.42300
C85         C  0.15572763  0.94950183  0.89637254    -0.07400
N86         N  0.14021930  0.84218588  0.88432838    -0.26100
H87         H  0.11045978  0.89797850  0.83295503     0.06500
N88         N  0.23800130  0.88751014  0.83165560    -0.47300
H89         H  0.16728841  0.96154262  0.90485328     0.06500
C90         C  0.13612101  0.88086606  0.95910909     0.42200
C91         C  0.23922529  0.92897874  0.87191521    -0.06900
Co92       Co  0.18368994  0.90898690  0.91243517     0.73800
N93         N  0.12617523  0.93318545  0.87638656    -0.47000
C94         C  0.23079242  0.80682113  0.89022949     0.42400
N95         N  0.21157069  0.88925950  0.95213059    -0.47000
Co96       Co  0.13910644  0.87958892  0.88448813     0.73900
C97         C  0.12727691  0.82513880  0.89411121    -0.07400
C98         C  0.20996590  0.86810658  0.81252703    -0.06900
N99         N  0.22488000  0.87902282  0.91786623    -0.26400
N100        N  0.15441319  0.86640846  0.81389946    -0.47200
H101        H  0.19948351  0.79468153  0.86861488     0.06400
C102        C  0.15707402  0.89311156  0.95373908    -0.07300
Cl103      Cl  0.18183931  0.87894889  0.88315371    -0.50300
C104        C  0.13480499  0.95397688  0.88377315     0.42200
H105        H  0.25460867  0.85921336  0.92875999     0.06400
N106        N  0.12684239  0.87344334  0.93851908    -0.47000
C107        C  0.37055404  0.73809741  0.81049325     0.42000
N108        N  0.35712139  0.71776694  0.83821624     0.00900
C109        C  0.38471485  0.71705561  0.95358554    -0.06900
H110        H  0.45628817  0.70971017  0.89424709     0.06400
C111        C  0.42696786  0.63517784  0.87342978    -0.07300
Co112      Co  0.37186305  0.73385075  0.88486321     0.74200
N113        N  0.41963740  0.71674243  0.89245012    -0.26500
Co114      Co  0.40374488  0.69084108  0.91171497     0.74100
C115        C  0.44927874  0.64648094  0.88030340     0.42100
N116        N  0.36849392  0.65013340  0.84653768     0.00600
N117        N  0.42024754  0.66621906  0.89278061     0.00700
N118        N  0.36364741  0.74531716  0.93620640    -0.47300
H119        H  0.38904322  0.76285003  0.83575345     0.06400
N120        N  0.40745358  0.73321914  0.88231613     0.00900
N121        N  0.38781588  0.66491531  0.93052946     0.00700
C122        C  0.37729975  0.64451562  0.96003477     0.42300
N123        N  0.35582699  0.66721439  0.83783198    -0.25900
C124        C  0.32201377  0.74684438  0.89949470    -0.06800
N125        N  0.35726677  0.71968759  0.81538427    -0.47000
N126        N  0.38923148  0.66326821  0.95333080    -0.47300
C127        C  0.29886646  0.73768212  0.89483239     0.42100
N128        N  0.37421085  0.73198913  0.92079688     0.00900
N129        N  0.32450425  0.66748580  0.87506660    -0.25900
N130        N  0.36926269  0.73391840  0.84874440    -0.26400
N131        N  0.33475981  0.64991517  0.88571228     0.00600
H132        H  0.28936058  0.67786371  0.86905612     0.06500
H133        H  0.35726688  0.61911505  0.93605238     0.06500
N134        N  0.38649101  0.71539254  0.93062595    -0.26500
N135        N  0.40975747  0.64895342  0.88206176    -0.26100
N136        N  0.32410281  0.71753894  0.87655116     0.00900
C137        C  0.44255636  0.74099661  0.87332471     0.42300
C138        C  0.35311434  0.66459205  0.81513687    -0.07400
N139        N  0.37551637  0.64825324  0.92083569    -0.26100
H140        H  0.42428367  0.61926637  0.86393419     0.06500
N141        N  0.42044286  0.74825664  0.87098886    -0.47300
H142        H  0.34307813  0.67581469  0.80386975     0.06500
C143        C  0.29792594  0.64597963  0.89056894     0.42200
C144        C  0.37846960  0.74780107  0.83252382    -0.06900
Co145      Co  0.34030706  0.69249801  0.85677260     0.73800
N146        N  0.37544261  0.63571360  0.82980032    -0.47000
C147        C  0.36913487  0.73640007  0.95719723     0.42400
N148        N  0.30155959  0.71981154  0.88008821    -0.47000
Co149      Co  0.37216018  0.64808369  0.88369492     0.73900
C150        C  0.36795848  0.63430700  0.93827339    -0.07400
C151        C  0.44209437  0.72025373  0.88791490    -0.06900
N152        N  0.33633121  0.73324613  0.88747135    -0.26400
N153        N  0.44298109  0.66529159  0.89215083    -0.47200
H154        H  0.39316080  0.70602077  0.96622237     0.06400
C155        C  0.30179301  0.66619671  0.87695946    -0.07300
Cl156      Cl  0.37209499  0.69113722  0.88420158    -0.50300
C157        C  0.36590198  0.64397011  0.80965368     0.42200
H158        H  0.32728421  0.76157163  0.90977125     0.06400
N159        N  0.31897203  0.63598624  0.89543903    -0.47000
C160        C  0.37027032  0.01702622  0.81134842     0.42000
N161        N  0.38365904  0.04161581  0.83540372     0.00900
C162        C  0.36452637  0.04264990  0.95306757    -0.06900
H163        H  0.29090949  0.05153912  0.90324614     0.06400
C164        C  0.31938006  0.12405237  0.87129066    -0.07300
Co165      Co  0.37380905  0.02750834  0.88384944     0.74200
N166        N  0.32699657  0.04488131  0.89587436    -0.26500
Co167      Co  0.34524888  0.07098744  0.91199703     0.74100
C168        C  0.29768017  0.11302940  0.87992072     0.42100
N169        N  0.37412043  0.11032331  0.84203342     0.00600
N170        N  0.32736680  0.09531302  0.89369239     0.00700
N171        N  0.38310407  0.01404696  0.93391364    -0.47300
H172        H  0.35474179  0.99474386  0.84058556     0.06400
N173        N  0.33782051  0.02812418  0.88481053     0.00900
N174        N  0.36325757  0.09655702  0.92785614     0.00700
C175        C  0.37518900  0.11745042  0.95623691     0.42300
N176        N  0.38498663  0.09259306  0.83234062    -0.25900
C177        C  0.42523920  0.01465093  0.89355041    -0.06800
N178        N  0.38288537  0.03655653  0.81307189    -0.47000
N179        N  0.36327068  0.09850806  0.95054965    -0.47300
C180        C  0.44763558  0.02335729  0.88571461     0.42100
N181        N  0.37478978  0.02980107  0.91949900     0.00900
N182        N  0.42103606  0.09368415  0.86561912    -0.25900
N183        N  0.37287628  0.02624705  0.84831024    -0.26400
N184        N  0.41203702  0.11100901  0.87761985     0.00600
H185        H  0.45538214  0.08395962  0.85508355     0.06500
H186        H  0.39219409  0.14331100  0.93001038     0.06500
N187        N  0.36360130  0.04647213  0.93024269    -0.26500
N188        N  0.33706088  0.11167878  0.88093465    -0.26100
N189        N  0.42061108  0.04334604  0.86990298     0.00900
C190        C  0.30182232  0.02000176  0.88147819     0.42300
C191        C  0.38488386  0.09474256  0.80936746    -0.07400
N192        N  0.37450737  0.11315937  0.91688652    -0.26100
H193        H  0.32142497  0.13846786  0.85946318     0.06500
N194        N  0.32340147  0.01263339  0.87605613    -0.47300
H195        H  0.39335967  0.08316025  0.79728386     0.06500
C196        C  0.44930565  0.11615504  0.87708881     0.42200
C197        C  0.36358111  0.01016949  0.83467980    -0.06900
Co198      Co  0.40260843  0.06777020  0.85059460     0.73800
N199        N  0.36603596  0.12499622  0.82590895    -0.47000
C200        C  0.37760129  0.02117991  0.95548001     0.42400
N201        N  0.44338672  0.04098759  0.87095781    -0.47000
Co202      Co  0.37445037  0.11280268  0.87942721     0.73900
C203        C  0.38282106  0.12754985  0.93355376    -0.07400
C204        C  0.30415499  0.04107104  0.89506393    -0.06900
N205        N  0.40961851  0.02807929  0.88277665    -0.26400
N206        N  0.30459340  0.09561216  0.89353817    -0.47200
H207        H  0.35533419  0.05246025  0.96614795     0.06400
C208        C  0.44387761  0.09573140  0.86410306    -0.07300
Cl209      Cl  0.37402588  0.06992821  0.88142544    -0.50300
C210        C  0.37244117  0.11597693  0.80493064     0.42200
H211        H  0.42135252  0.00025850  0.90493727     0.06400
N212        N  0.42881143  0.12500630  0.88542766    -0.47000
C213        C  0.29386883  0.86519217  0.02770546     0.42000
N214        N  0.31992200  0.88358450  0.04658681     0.00900
C215        C  0.43744230  0.87201918  0.04149757    -0.06900
H216        H  0.39035449  0.79504202  0.05997073     0.06400
C217        C  0.36550947  0.82693671  0.13084024    -0.07300
Co218      Co  0.36703768  0.87406422  0.02879760     0.74200
N219        N  0.38214719  0.82997077  0.04978564    -0.26500
Co220      Co  0.39986397  0.85066170  0.07263212     0.74100
C221        C  0.37531397  0.80494502  0.12100044     0.42100
N222        N  0.33203861  0.88106510  0.11424903     0.00600
N223        N  0.38467910  0.83407354  0.09976404     0.00700
N224        N  0.41563361  0.88692667  0.01240546    -0.47300
H225        H  0.32125091  0.84916730  0.00329750     0.06400
N226        N  0.36970717  0.83877947  0.03282776     0.00900
N227        N  0.41714731  0.87082057  0.09557631     0.00700
C228        C  0.44639157  0.88263487  0.11519940     0.42300
N229        N  0.32140928  0.89079031  0.09640122    -0.25900
C230        C  0.37200544  0.92362506  0.00925978    -0.06800
N231        N  0.29730733  0.88054223  0.04499198    -0.47000
N232        N  0.43990528  0.87060106  0.09657952    -0.47300
C233        C  0.36428639  0.94632166  0.01680557     0.42100
N234        N  0.40271828  0.87668943  0.02829861     0.00900
N235        N  0.35446975  0.92645766  0.09149161    -0.25900
N236        N  0.33153501  0.87169330  0.03099567    -0.26400
N237        N  0.36742258  0.91885097  0.10890219     0.00600
H238        H  0.34501628  0.96012610  0.07851647     0.06500
H239        H  0.42188755  0.90037970  0.14201717     0.06500
N240        N  0.41506872  0.86782731  0.04535078    -0.26500
N241        N  0.37245650  0.84424377  0.11625943    -0.26100
N242        N  0.35266760  0.92154007  0.04121151     0.00900
C243        C  0.36698829  0.80217632  0.02850432     0.42300
C244        C  0.29872995  0.89160584  0.09968497    -0.07400
N245        N  0.40701570  0.88226614  0.11260269    -0.26100
H246        H  0.35513084  0.82938163  0.14624592     0.06500
N247        N  0.36042115  0.82275104  0.01945576    -0.47300
H248        H  0.28619028  0.89940074  0.08804518     0.06500
C249        C  0.36929587  0.95632514  0.10946491     0.42200
C250        C  0.31664029  0.85959688  0.01816268    -0.06900
Co251      Co  0.33695015  0.90571954  0.06896498     0.73800
N252        N  0.31656226  0.87442788  0.13023409    -0.47000
C253        C  0.43773679  0.88497625  0.01987106     0.42400
N254        N  0.35197176  0.94391683  0.03636044    -0.47000
Co255      Co  0.36963416  0.88170303  0.11429778     0.73900
C256        C  0.42435517  0.89061764  0.12621677    -0.07400
C257        C  0.38132701  0.80690690  0.04861883    -0.06900
N258        N  0.36411815  0.90938425  0.02569191    -0.26400
N259        N  0.38678680  0.81153971  0.10208949    -0.47200
H260        H  0.45168855  0.86651384  0.05241423     0.06400
C261        C  0.35441385  0.94945063  0.09079871    -0.07300
Cl262      Cl  0.36837216  0.87806158  0.07138418    -0.50300
C263        C  0.29528524  0.88105758  0.12180055     0.42200
H264        H  0.38159794  0.91863244  0.99395512     0.06400
N265        N  0.37701188  0.93659618  0.12031498    -0.47000
C266        C  0.50953685  0.81211953  0.87320753     0.42000
N267        N  0.53087712  0.83659459  0.89094253     0.00900
C268        C  0.53976324  0.95377005  0.87360733    -0.06900
H269        H  0.55099288  0.89867155  0.79831536     0.06400
C270        C  0.61843595  0.86687740  0.83243494    -0.07300
Co271      Co  0.51935439  0.88530474  0.87944346     0.74200
N272        N  0.54042787  0.89557921  0.83393861    -0.26500
Co273      Co  0.56604645  0.91101774  0.85364284     0.74100
C274        C  0.60962485  0.87593101  0.80967990     0.42100
N275        N  0.59979002  0.83955058  0.88679801     0.00600
N276        N  0.59071633  0.89119226  0.83801090     0.00700
N277        N  0.50948878  0.93599218  0.89083688    -0.47300
H278        H  0.48868575  0.84145310  0.85531960     0.06400
N279        N  0.52245782  0.88595707  0.84398708     0.00900
N280        N  0.59151038  0.92584903  0.87291022     0.00700
C281        C  0.61236849  0.95309237  0.88680242     0.42300
N282        N  0.58076825  0.83131240  0.89639601    -0.25900
C283        C  0.50220911  0.89546524  0.92877691    -0.06800
N284        N  0.52702425  0.81419909  0.88847555    -0.47000
N285        N  0.59466692  0.94842717  0.87273107    -0.47300
C286        C  0.50856958  0.88780636  0.95205137     0.42100
N287        N  0.52337929  0.92090366  0.88058910     0.00900
N288        N  0.58119770  0.86532562  0.93194729    -0.25900
N289        N  0.51673486  0.84954524  0.87853731    -0.26400
N290        N  0.60008191  0.87534375  0.92380236     0.00600
H291        H  0.56929144  0.85548331  0.96574193     0.06500
H292        H  0.63398879  0.92667681  0.90846206     0.06500
N293        N  0.54120506  0.93080255  0.87045985    -0.26500
N294        N  0.60555054  0.87759620  0.84907505    -0.26100
N295        N  0.53105149  0.87164020  0.92743252     0.00900
C296        C  0.51692399  0.88015022  0.80781649     0.42300
C297        C  0.58126702  0.80831705  0.89669503    -0.07400
N298        N  0.60618956  0.91420679  0.88625928    -0.26100
H299        H  0.63191112  0.85431077  0.83595522     0.06500
N300        N  0.50797412  0.87654252  0.82907247    -0.47300
H301        H  0.56807660  0.79754942  0.90438796     0.06500
C302        C  0.60401706  0.87392446  0.96123089     0.42200
C303        C  0.50246366  0.83567052  0.86669578    -0.06900
Co304      Co  0.55586963  0.85113035  0.91181194     0.73800
N305        N  0.61398030  0.82228984  0.88046303    -0.47000
C306        C  0.51899352  0.95707743  0.88760152     0.42400
N307        N  0.52641933  0.87283072  0.94982284    -0.47000
Co308      Co  0.60419621  0.87667232  0.88656808     0.73900
C309        C  0.61999819  0.93032970  0.89647569    -0.07400
C310        C  0.53851316  0.89287902  0.81093303    -0.06900
N311        N  0.51703719  0.88452618  0.91486025    -0.26400
N312        N  0.59275623  0.89077529  0.81536551    -0.47200
H313        H  0.55173602  0.96654673  0.86698799     0.06400
C314        C  0.58217631  0.86368692  0.95490771    -0.07300
Cl315      Cl  0.56178208  0.88103401  0.88294125    -0.50300
C316        C  0.60312512  0.80199206  0.88628701     0.42200
H317        H  0.48823073  0.90663106  0.92303679     0.06400
N318        N  0.61449851  0.88093417  0.94109383    -0.47000
C319        C  0.87875684  0.31078119  0.74690352     0.42000
N320        N  0.87342162  0.34622828  0.73707239     0.00900
C321        C  0.81849888  0.38637229  0.63749626    -0.06900
H322        H  0.88954731  0.32963725  0.62204822     0.06400
C323        C  0.94311270  0.39485139  0.66918894    -0.07300
Co324      Co  0.84421989  0.35157819  0.69494801     0.74200
N325        N  0.87295896  0.34417136  0.65256641    -0.26500
Co326      Co  0.87366145  0.38153234  0.65128560     0.74100
C327        C  0.94876302  0.38063689  0.64961362     0.42100
N328        N  0.92016480  0.39340128  0.72102847     0.00600
N329        N  0.91129388  0.38236798  0.65337703     0.00700
N330        N  0.80377090  0.36680804  0.66774501    -0.47300
H331        H  0.85714246  0.29779679  0.71580670     0.06400
N332        N  0.86160720  0.33392819  0.66968363     0.00900
N333        N  0.87411480  0.41930656  0.65249415     0.00700
C334        C  0.87341218  0.45658390  0.64657334     0.42300
N335        N  0.90867326  0.38217618  0.73716181    -0.25900
C336        C  0.80352292  0.37180675  0.72319095    -0.06800
N337        N  0.88300238  0.33287197  0.75305487    -0.47000
N338        N  0.86607602  0.43566024  0.63792265    -0.47300
C339        C  0.80114076  0.38618997  0.74380459     0.42100
N340        N  0.82640930  0.36863909  0.66936497     0.00900
N341        N  0.87225965  0.41764356  0.73600095    -0.25900
N342        N  0.86259849  0.33441598  0.72089093    -0.26400
N343        N  0.88393121  0.42895910  0.72007923     0.00600
H344        H  0.85169760  0.42891520  0.76502676     0.06500
H345        H  0.89511695  0.46362965  0.67882709     0.06500
N346        N  0.83613420  0.37997805  0.65196543    -0.26500
N347        N  0.92032133  0.39445879  0.67054796    -0.26100
N348        N  0.83715622  0.38141047  0.73618050     0.00900
C349        C  0.87149666  0.30520078  0.64845729     0.42300
C350        C  0.92384455  0.37224835  0.75171185    -0.07400
N351        N  0.88565513  0.42893362  0.66977029    -0.26100
H352        H  0.95425743  0.40453458  0.68068916     0.06500
N353        N  0.86020460  0.31121504  0.66773780    -0.47300
H354        H  0.91949560  0.36238984  0.76703803     0.06500
C355        C  0.86826241  0.45550578  0.74042320     0.42200
C356        C  0.86489771  0.31174344  0.72559763    -0.06900
Co357      Co  0.87285479  0.38191351  0.73711687     0.73800
N358        N  0.94290606  0.39200270  0.72380180    -0.47000
C359        C  0.79681221  0.37716255  0.64825828     0.42400
N360        N  0.82278598  0.39116377  0.75110039    -0.47000
Co361      Co  0.90261071  0.41152649  0.69535839     0.73900
C362        C  0.88622461  0.45177905  0.66737741    -0.07400
C363        C  0.88033770  0.32708324  0.63817555    -0.06900
N364        N  0.82633294  0.36983516  0.71988589    -0.26400
N365        N  0.92816033  0.37340776  0.64007482    -0.47200
H366        H  0.82056133  0.39527621  0.62110485     0.06400
C367        C  0.86174192  0.43298761  0.74976552    -0.07300
Cl368      Cl  0.87331756  0.38158650  0.69422542    -0.50300
C369        C  0.94654005  0.37865046  0.74266970     0.42200
H370        H  0.79041165  0.36362288  0.71276826     0.06400
N371        N  0.88261051  0.45168766  0.72246322    -0.47000
C372        C  0.87417146  0.24577339  0.82184596     0.42000
N373        N  0.86155433  0.21994394  0.84516408     0.00900
C374        C  0.88547613  0.20510750  0.96094133    -0.06900
H375        H  0.95777255  0.20264863  0.90578076     0.06400
C376        C  0.92616939  0.13174760  0.87112094    -0.07300
Co377      Co  0.87372345  0.22901959  0.89422640     0.74200
N378        N  0.92122815  0.21024696  0.90192035    -0.26500
Co379      Co  0.90368218  0.18239992  0.91601580     0.74100
C380        C  0.94860277  0.14119528  0.87977630     0.42100
N381        N  0.87100309  0.15088259  0.84387587     0.00600
N382        N  0.92016052  0.16000859  0.89452446     0.00700
N383        N  0.86509839  0.23521931  0.94621794    -0.47300
H384        H  0.89128890  0.26613209  0.85177506     0.06400
N385        N  0.90978531  0.22816900  0.89346393     0.00900
N386        N  0.88629550  0.15509738  0.92983608     0.00700
C387        C  0.87316412  0.13372267  0.95729004     0.42300
N388        N  0.86019529  0.16987358  0.83690641    -0.25900
C389        C  0.82224088  0.24105171  0.90649370    -0.06800
N390        N  0.86180215  0.22613745  0.82312272    -0.47000
N391        N  0.88670166  0.15167764  0.95229939    -0.47300
C392        C  0.79966008  0.23280272  0.89845201     0.42100
N393        N  0.87440189  0.22246696  0.92960129     0.00900
N394        N  0.82540993  0.16501847  0.87146776    -0.25900
N395        N  0.87286125  0.23439610  0.85864512    -0.26400
N396        N  0.83458112  0.14601373  0.88037880     0.00600
H397        H  0.79117486  0.17638615  0.86303193     0.06500
H398        H  0.85218183  0.11166220  0.93070737     0.06500
N399        N  0.88634293  0.20479958  0.93778609    -0.26500
N400        N  0.90941532  0.14470596  0.88133569    -0.26100
N401        N  0.82656971  0.21412398  0.88105001     0.00900
C402        C  0.94554986  0.23654737  0.88845400     0.42300
C403        C  0.85955946  0.17088388  0.81389668    -0.07400
N404        N  0.87332762  0.14024142  0.91822473    -0.26100
H405        H  0.92287415  0.11718581  0.85986584     0.06500
N406        N  0.92368888  0.24440917  0.88529337    -0.47300
H407        H  0.85045045  0.18409756  0.80416329     0.06500
C408        C  0.79722482  0.14071906  0.87941012     0.42200
C409        C  0.88164992  0.25138408  0.84546357    -0.06900
Co410      Co  0.84347453  0.19230134  0.85857214     0.73800
N411        N  0.87799267  0.13831488  0.82565705    -0.47000
C412        C  0.87091941  0.22496591  0.96652100     0.42400
N413        N  0.80389465  0.21639849  0.88248263    -0.47000
Co414      Co  0.87206083  0.14417023  0.88090140     0.73900
C415        C  0.86398006  0.12570637  0.93439017    -0.07400
C416        C  0.94405474  0.21410786  0.89995901    -0.06900
N417        N  0.83780813  0.22844651  0.89469297    -0.26400
N418        N  0.94288192  0.15838034  0.89416413    -0.47200
H419        H  0.89469632  0.19344609  0.97240642     0.06400
C420        C  0.80255244  0.16328753  0.87022945    -0.07300
Cl421      Cl  0.87327277  0.18681122  0.88735405    -0.50300
C422        C  0.87137017  0.15016325  0.80602917     0.42200
H423        H  0.82618845  0.25499301  0.91836932     0.06400
N424        N  0.81798674  0.13063881  0.88556459    -0.47000
C425        C  0.73649738  0.44715701  0.87944366     0.42000
N426        N  0.71480400  0.42180940  0.89589063     0.00900
C427        C  0.71034995  0.30503769  0.87504948    -0.06900
H428        H  0.69675611  0.36002193  0.80159721     0.06400
C429        C  0.62721716  0.38768530  0.83513196    -0.07300
Co430      Co  0.72769967  0.37392109  0.88287194     0.74200
N431        N  0.70673974  0.36394313  0.83722457    -0.26500
Co432      Co  0.68206620  0.34699880  0.85671582     0.74100
C433        C  0.63660392  0.37874411  0.81250898     0.42100
N434        N  0.64602392  0.41630250  0.89099580     0.00600
N435        N  0.65666838  0.36573941  0.84123686     0.00700
N436        N  0.74010301  0.32370043  0.89236468    -0.47300
H437        H  0.75816605  0.41851352  0.86163807     0.06400
N438        N  0.72417257  0.37427959  0.84746600     0.00900
N439        N  0.65760259  0.33066387  0.87594189     0.00700
C440        C  0.63869672  0.30177987  0.88963062     0.42300
N441        N  0.66441726  0.42475592  0.90174652    -0.25900
C442        C  0.74529780  0.36172522  0.93155034    -0.06800
N443        N  0.71873342  0.44435387  0.89446061    -0.47000
N444        N  0.65622756  0.30794493  0.87597839    -0.47300
C445        C  0.73842408  0.36739975  0.95509371     0.42100
N446        N  0.72522145  0.33838104  0.88294718     0.00900
N447        N  0.66528120  0.38928344  0.93577658    -0.25900
N448        N  0.72923331  0.40959077  0.88317048    -0.26400
N449        N  0.64659942  0.37924898  0.92709649     0.00600
H450        H  0.67677105  0.39790203  0.97007639     0.06500
H451        H  0.61427901  0.32677441  0.91005728     0.06500
N452        N  0.70772137  0.32798450  0.87280510    -0.26500
N453        N  0.64100360  0.37844205  0.85208811    -0.26100
N454        N  0.71592936  0.38505011  0.93140451     0.00900
C455        C  0.73014690  0.37990235  0.81125869     0.42300
C456        C  0.66306534  0.44769559  0.90313610    -0.07400
N457        N  0.64182361  0.34123552  0.88879048    -0.26100
H458        H  0.61241752  0.39873726  0.83833212     0.06500
N459        N  0.73857315  0.38391883  0.83268643    -0.47300
H460        H  0.67554425  0.45883412  0.91155054     0.06500
C461        C  0.64251137  0.37894599  0.96449937     0.42200
C462        C  0.74377413  0.42395074  0.87231548    -0.06900
Co463      Co  0.69019491  0.40535760  0.91642188     0.73800
N464        N  0.63176920  0.43345160  0.88431284    -0.47000
C465        C  0.73145533  0.30244615  0.88855037     0.42400
N466        N  0.72025307  0.38216903  0.95377229    -0.47000
Co467      Co  0.64250474  0.37889876  0.88975474     0.73900
C468        C  0.62868825  0.32408795  0.89837596    -0.07400
C469        C  0.70884922  0.36655790  0.81422051    -0.06900
N470        N  0.73035750  0.37335184  0.91822318    -0.26400
N471        N  0.65451475  0.36543804  0.81861930    -0.47200
H472        H  0.69915030  0.29188538  0.86787638     0.06400
C473        C  0.66420335  0.38980392  0.95878515    -0.07300
Cl474      Cl  0.68516830  0.37640912  0.88650222    -0.50300
C475        C  0.64174443  0.45367073  0.89172503     0.42200
H476        H  0.75935090  0.35090658  0.92541349     0.06400
N477        N  0.63220566  0.37266977  0.94404806    -0.47000
C478        C  0.01386816  0.30682203  0.88202919     0.42000
N479        N  0.03632021  0.33307506  0.89545265     0.00900
C480        C  0.03965795  0.44966208  0.87238087    -0.06900
H481        H  0.05006345  0.39690330  0.79912690     0.06400
C482        C  0.12211279  0.36773493  0.83124266    -0.07300
Co483      Co  0.02234518  0.38063412  0.88159768     0.74200
N484        N  0.04199987  0.39074131  0.83516177    -0.26500
Co485      Co  0.06730046  0.40794934  0.85374887     0.74100
C486        C  0.11230504  0.37647639  0.80871620     0.42100
N487        N  0.10462517  0.33907586  0.88755805     0.00600
N488        N  0.09237956  0.38923375  0.83755669     0.00700
N489        N  0.00983298  0.43138326  0.89000774    -0.47300
H490        H  0.99145484  0.33411630  0.86287769     0.06400
N491        N  0.02492487  0.37987903  0.84562596     0.00900
N492        N  0.09250943  0.42479298  0.87199621     0.00700
C493        C  0.11256327  0.45361495  0.88449865     0.42300
N494        N  0.08673696  0.33065341  0.89909315    -0.25900
C495        C  0.00641485  0.39238050  0.93219394    -0.06800
N496        N  0.03236619  0.31052095  0.89574362    -0.47000
N497        N  0.09447171  0.44753021  0.87137745    -0.47300
C498        C  0.01458282  0.38594034  0.95546360     0.42100
N499        N  0.02460665  0.41644744  0.88083783     0.00900
N500        N  0.08664362  0.36654387  0.93293903    -0.25900
N501        N  0.02123780  0.34466763  0.88277636    -0.26400
N502        N  0.10501951  0.37679312  0.92398398     0.00600
H503        H  0.07494271  0.35897648  0.96728272     0.06500
H504        H  0.13725002  0.42815633  0.90428211     0.06500
N505        N  0.04204472  0.42671170  0.87040505    -0.26500
N506        N  0.10844977  0.37682040  0.84830850    -0.26100
N507        N  0.03626081  0.36992642  0.92996258     0.00900
C508        C  0.01825950  0.37529763  0.80933091     0.42300
C509        C  0.08767640  0.30766220  0.89986065    -0.07400
N510        N  0.10848879  0.41419637  0.88465170    -0.26100
H511        H  0.13731445  0.35712345  0.83421930     0.06500
N512        N  0.01010131  0.37061147  0.83080115    -0.47300
H513        H  0.07531968  0.29652031  0.90844676     0.06500
C514        C  0.10878005  0.37856485  0.96170225     0.42200
C515        C  0.00634107  0.32957265  0.87339494    -0.06900
Co516      Co  0.06150270  0.35002356  0.91442441     0.73800
N517        N  0.11799505  0.32180540  0.87951132    -0.47000
C518        C  0.01832036  0.45264285  0.88534532     0.42400
N519        N  0.03290799  0.37181593  0.95251228    -0.47000
Co520      Co  0.10799486  0.37661487  0.88614381     0.73900
C521        C  0.12219088  0.43118926  0.89352138    -0.07400
C522        C  0.03915376  0.38905182  0.81218013    -0.06900
N523        N  0.02096736  0.38156827  0.91761716    -0.26400
N524        N  0.09417787  0.38950954  0.81483447    -0.47200
H525        H  0.05124372  0.46254252  0.86531485     0.06400
C526        C  0.08756038  0.36684796  0.95593815    -0.07300
Cl527      Cl  0.06514706  0.37873084  0.88394939    -0.50300
C528        C  0.10803053  0.30153268  0.88697368     0.42200
H529        H  0.99171061  0.40291044  0.92708457     0.06400
N530        N  0.11904055  0.38444579  0.94095501    -0.47000
C531        C  0.80722678  0.35617311  0.02398646     0.42000
N532        N  0.83118956  0.37502599  0.04523468     0.00900
C533        C  0.94941438  0.36850033  0.04980994    -0.06900
H534        H  0.90325294  0.28843510  0.06499679     0.06400
C535        C  0.86656427  0.32072920  0.13061208    -0.07300
Co536      Co  0.87995967  0.36723108  0.03191306     0.74200
N537        N  0.89529970  0.32330011  0.05384488    -0.26500
Co538      Co  0.90967625  0.34470746  0.07838735     0.74100
C539        C  0.87719158  0.29867673  0.12210488     0.42100
N540        N  0.83650738  0.37439597  0.11416998     0.00600
N541        N  0.89174398  0.32779101  0.10405966     0.00700
N542        N  0.92842372  0.38295435  0.01998461    -0.47300
H543        H  0.83725689  0.34129069  0.00184758     0.06400
N544        N  0.88375481  0.33181621  0.03609320     0.00900
N545        N  0.92363528  0.36537150  0.10287118     0.00700
C546        C  0.95055954  0.38044990  0.12324141     0.42300
N547        N  0.82744389  0.38260494  0.09484028    -0.25900
C548        C  0.88438169  0.41715236  0.01229649    -0.06800
N549        N  0.80893101  0.37125699  0.04176008    -0.47000
N550        N  0.94622425  0.36682804  0.10518650    -0.47300
C551        C  0.87452928  0.43966147  0.01837653     0.42100
N552        N  0.91530097  0.37138448  0.03467002     0.00900
N553        N  0.85998477  0.41973753  0.09282416    -0.25900
N554        N  0.84443173  0.36358445  0.03064851    -0.26400
N555        N  0.87153268  0.41260533  0.11134819     0.00600
H556        H  0.85110089  0.45291414  0.07863670     0.06500
H557        H  0.92353314  0.39872102  0.14700930     0.06500
N558        N  0.92699757  0.36280801  0.05235018    -0.26500
N559        N  0.87702521  0.33804593  0.11844538    -0.26100
N560        N  0.86289924  0.41440543  0.04267768     0.00900
C561        C  0.88199356  0.29509049  0.03187990     0.42300
C562        C  0.80453249  0.38293272  0.09594989    -0.07400
N563        N  0.91161983  0.37718455  0.11840700    -0.26100
H564        H  0.85324052  0.32313102  0.14357794     0.06500
N565        N  0.87540569  0.31550033  0.02243066    -0.47300
H566        H  0.79346311  0.38996508  0.08253082     0.06500
C567        C  0.87313506  0.45031325  0.11164574     0.42200
C568        C  0.83097215  0.35131822  0.01634581    -0.06900
Co569      Co  0.84525545  0.39797504  0.06887885     0.73800
N570        N  0.81968025  0.36931504  0.12941502    -0.47000
C571        C  0.95013164  0.38237146  0.02852111     0.42400
N572        N  0.86117649  0.43661586  0.03719520    -0.47000
Co573      Co  0.87409625  0.37558279  0.11699231     0.73900
C574        C  0.92749066  0.38767155  0.13239171    -0.07400
C575        C  0.89528172  0.30012693  0.05265442    -0.06900
N576        N  0.87609402  0.40263791  0.02832888    -0.26400
N577        N  0.89242399  0.30504576  0.10593640    -0.47200
H578        H  0.96336510  0.36380227  0.06147233     0.06400
C579        C  0.85976779  0.44277309  0.09184256    -0.07300
Cl580      Cl  0.87722500  0.37136687  0.07443339    -0.50300
C581        C  0.79888825  0.37443820  0.11875751     0.42200
H582        H  0.89506409  0.41232812  0.99767697     0.06400
N583        N  0.87991998  0.43062959  0.12324403    -0.47000
C584        C  0.87297818  0.51976138  0.81315658     0.42000
N585        N  0.88726770  0.54158131  0.83903288     0.00900
C586        C  0.86346948  0.53942931  0.95603581    -0.06900
H587        H  0.79220831  0.55236680  0.90417461     0.06400
C588        C  0.82320067  0.62551431  0.87449991    -0.07300
Co589      Co  0.87501858  0.52697278  0.88656431     0.74200
N590        N  0.82823384  0.54525234  0.89758677    -0.26500
Co591      Co  0.84649968  0.57067520  0.91492086     0.74100
C592        C  0.80069804  0.61552336  0.88271600     0.42100
N593        N  0.87807371  0.60949041  0.84607950     0.00600
N594        N  0.82969500  0.59603441  0.89644609     0.00700
N595        N  0.88301777  0.51222867  0.93585339    -0.47300
H596        H  0.85505447  0.49656253  0.84024373     0.06400
N597        N  0.83914389  0.52839582  0.88673955     0.00900
N598        N  0.86502722  0.59577016  0.93171780     0.00700
C599        C  0.87862174  0.61535461  0.96045633     0.42300
N600        N  0.88952130  0.59192134  0.83679328    -0.25900
C601        C  0.92563644  0.51219526  0.89772829    -0.06800
N602        N  0.88676418  0.53813050  0.81643997    -0.47000
N603        N  0.86543508  0.59725251  0.95450371    -0.47300
C604        C  0.94853375  0.52083501  0.89144005     0.42100
N605        N  0.87506424  0.52866909  0.92213658     0.00900
N606        N  0.92426245  0.59189963  0.87150933    -0.25900
N607        N  0.87521785  0.52622081  0.85076231    -0.26400
N608        N  0.91548688  0.60974599  0.88275430     0.00600
H609        H  0.95770395  0.58062243  0.86157298     0.06500
H610        H  0.89717506  0.64044026  0.93457544     0.06500
N611        N  0.86356179  0.54483936  0.93335277    -0.26500
N612        N  0.84024282  0.61219962  0.88414828    -0.26100
N613        N  0.92264902  0.54179481  0.87501186     0.00900
C614        C  0.80321933  0.51968745  0.88388183     0.42300
C615        C  0.88906053  0.59328436  0.81378040    -0.07400
N616        N  0.87717917  0.61196913  0.92102234    -0.26100
H617        H  0.82631511  0.64010748  0.86319625     0.06500
N618        N  0.82486125  0.51262914  0.87838117    -0.47300
H619        H  0.89725583  0.58128851  0.80192220     0.06500
C620        C  0.95317455  0.61366498  0.88336077     0.42200
C621        C  0.86538009  0.51153520  0.83578945    -0.06900
Co622      Co  0.90600722  0.56678151  0.85548800     0.73800
N623        N  0.86880140  0.62300275  0.82957723    -0.47000
C624        C  0.87660238  0.51769757  0.95759148     0.42400
N625        N  0.94527663  0.53883450  0.87687260    -0.47000
Co626      Co  0.87777679  0.61222045  0.88351964     0.73900
C627        C  0.88659360  0.62541291  0.93789160    -0.07400
C628        C  0.80538441  0.54148546  0.89647787    -0.06900
N629        N  0.91079445  0.52639445  0.88683564    -0.26400
N630        N  0.80692988  0.59750150  0.89603783    -0.47200
H631        H  0.85391874  0.54854199  0.96935984     0.06400
C632        C  0.94709662  0.59301988  0.87072503    -0.07300
Cl633      Cl  0.87626668  0.56954577  0.88511455    -0.50300
C634        C  0.87536643  0.61354785  0.80881845     0.42200
H635        H  0.92091749  0.49737553  0.90819594     0.06400
N636        N  0.93256254  0.62349297  0.89047635    -0.47000
C637        C  0.79518343  0.87237860  0.15010051     0.42000
N638        N  0.83270534  0.87211740  0.15400463     0.00900
C639        C  0.88657862  0.83192955  0.25421702    -0.06900
H640        H  0.82928242  0.90308400  0.26624696     0.06400
C641        C  0.88483006  0.95042438  0.21792230    -0.07300
Co642      Co  0.84385882  0.84803187  0.19880241     0.74200
N643        N  0.83971858  0.88138746  0.23760692    -0.26500
Co644      Co  0.87571715  0.88158409  0.23592564     0.74100
C645        C  0.87195050  0.95330566  0.23959108     0.42100
N646        N  0.88260945  0.92227059  0.16365049     0.00600
N647        N  0.87525878  0.91713422  0.23208114     0.00700
N648        N  0.86511313  0.81085418  0.22920310    -0.47300
H649        H  0.79025207  0.85417845  0.18502334     0.06400
N650        N  0.82787230  0.86868461  0.22289074     0.00900
N651        N  0.91159909  0.88158868  0.23265837     0.00700
C652        C  0.94802499  0.87690783  0.23794960     0.42300
N653        N  0.86999859  0.91031210  0.14868172    -0.25900
C654        C  0.85852913  0.80489199  0.17482579    -0.06800
N655        N  0.81558519  0.87859398  0.13959224    -0.47000
N656        N  0.92696593  0.87263170  0.24721249    -0.47300
C657        C  0.86897751  0.79765493  0.15329664     0.42100
N658        N  0.86380221  0.83321881  0.22454472     0.00900
N659        N  0.90752757  0.87362961  0.15025741    -0.25900
N660        N  0.82426600  0.86239918  0.17291337    -0.26400
N661        N  0.91822487  0.88776429  0.16475825     0.00600
H662        H  0.92158581  0.84973009  0.12470358     0.06500
H663        H  0.95703811  0.89738526  0.20504075     0.06500
N664        N  0.87601324  0.84593079  0.23892642    -0.26500
N665        N  0.88565202  0.92738305  0.21455125    -0.26100
N666        N  0.86953528  0.83545256  0.15565089     0.00900
C667        C  0.80180047  0.88402684  0.24420101     0.42300
C668        C  0.85927308  0.92611754  0.13477645    -0.07400
N669        N  0.92141075  0.89183988  0.21480469    -0.26100
H670        H  0.89292681  0.96339544  0.20708454     0.06500
N671        N  0.80532722  0.86962217  0.22632830    -0.47300
H672        H  0.84748558  0.92215041  0.12074257     0.06500
C673        C  0.94683241  0.87200100  0.14689225     0.42200
C674        C  0.80129967  0.86176377  0.17194939    -0.06900
Co675      Co  0.87002224  0.87282808  0.15084892     0.73800
N676        N  0.88173524  0.94489007  0.16068501    -0.47000
C677        C  0.87927966  0.80861345  0.24757814     0.42400
N678        N  0.87553318  0.81762154  0.14198893    -0.47000
Co679      Co  0.90203952  0.90755881  0.18924083     0.73900
C680        C  0.94440581  0.89006904  0.21677255    -0.07400
C681        C  0.82469393  0.89196332  0.25188614    -0.06900
N682        N  0.85951523  0.82781915  0.17470138    -0.26400
N683        N  0.86705675  0.93190901  0.24747109    -0.47200
H684        H  0.89730777  0.83747903  0.26855283     0.06400
C685        C  0.92446512  0.86253479  0.13807010    -0.07300
Cl686      Cl  0.87287068  0.87750646  0.19355356    -0.50300
C687        C  0.86751769  0.94909642  0.14290169     0.42200
H688        H  0.85008473  0.79493248  0.18820545     0.06400
N689        N  0.94095999  0.88740575  0.16310143    -0.47000
C690        C  0.88157418  0.73801855  0.31514134     0.42000
N691        N  0.86420730  0.71531909  0.33868293     0.00900
C692        C  0.87776110  0.71440541  0.45679253    -0.06900
H693        H  0.95521230  0.71530189  0.40692406     0.06400
C694        C  0.93125138  0.63618130  0.37770024    -0.07300
Co695      Co  0.87017036  0.73053398  0.38744772     0.74200
N696        N  0.91831921  0.71710634  0.40003825    -0.26500
Co697      Co  0.90224164  0.68925899  0.41623851     0.74100
C698        C  0.95254598  0.64813660  0.38626941     0.42100
N699        N  0.87598487  0.64706867  0.34677452     0.00600
N700        N  0.92192576  0.66592211  0.39811974     0.00700
N701        N  0.85703914  0.74146551  0.43741940    -0.47300
H702        H  0.89210324  0.76269594  0.34458819     0.06400
N703        N  0.90544363  0.73265664  0.38939147     0.00900
N704        N  0.88661676  0.66217041  0.43256410     0.00700
C705        C  0.87645155  0.64052238  0.46108278     0.42300
N706        N  0.86501545  0.66454334  0.33670486    -0.25900
C707        C  0.81772999  0.74152637  0.39315703    -0.06800
N708        N  0.86854374  0.71864749  0.31639474    -0.47000
N709        N  0.88757031  0.65991881  0.45527728    -0.47300
C710        C  0.79659398  0.73208994  0.38303600     0.42100
N711        N  0.86848031  0.72776676  0.42309008     0.00900
N712        N  0.82833193  0.66230496  0.36938387    -0.25900
N713        N  0.87284303  0.73173170  0.35186452    -0.26400
N714        N  0.83771313  0.64572920  0.38226099     0.00600
H715        H  0.79376628  0.67126138  0.35891628     0.06500
H716        H  0.85937377  0.61425727  0.43566408     0.06500
N717        N  0.88105976  0.71211086  0.43400275    -0.26500
N718        N  0.91299924  0.64852482  0.38614624    -0.26100
N719        N  0.82548008  0.71227618  0.37118824     0.00900
C720        C  0.93970232  0.74603332  0.38619734     0.42300
C721        C  0.86586173  0.66260992  0.31378603    -0.07400
N722        N  0.87564518  0.64521737  0.42183018    -0.26100
H723        H  0.92973807  0.62096789  0.36691340     0.06500
N724        N  0.91746398  0.74994749  0.38083938    -0.47300
H725        H  0.85724910  0.67390368  0.30146436     0.06500
C726        C  0.80042469  0.64033969  0.38249195     0.42200
C727        C  0.88381612  0.74706178  0.33854477    -0.06900
Co728      Co  0.84577682  0.68856437  0.35373903     0.73800
N729        N  0.88456251  0.63248117  0.33084747    -0.47000
C730        C  0.86174000  0.73395171  0.45913072     0.42400
N731        N  0.80273154  0.71421356  0.36944712    -0.47000
Co732      Co  0.87552290  0.64533973  0.38432422     0.73900
C733        C  0.86826505  0.63044305  0.43868728    -0.07400
C734        C  0.94057690  0.72401644  0.39897658    -0.06900
N735        N  0.83468147  0.72809674  0.38468053    -0.26400
N736        N  0.94474973  0.66619367  0.39860182    -0.47200
H737        H  0.88630334  0.70419168  0.47004273     0.06400
C738        C  0.80552825  0.66002900  0.36833413    -0.07300
Cl739      Cl  0.87343282  0.68819861  0.38545670    -0.50300
C740        C  0.87867818  0.64169440  0.30971498     0.42200
H741        H  0.82006420  0.75675292  0.40381670     0.06400
N742        N  0.82113740  0.63192535  0.39094417    -0.47000
C743        C  0.73948606  0.94087461  0.38260701     0.42000
N744        N  0.71528999  0.91617809  0.39607459     0.00900
C745        C  0.70435958  0.80171793  0.36467980    -0.06900
H746        H  0.69539727  0.86341946  0.29642672     0.06400
C747        C  0.62376503  0.88964275  0.33296705    -0.07300
Co748      Co  0.72507217  0.86856369  0.37990636     0.74200
N749        N  0.70441109  0.86381816  0.33281389    -0.26500
Co750      Co  0.67836077  0.84658528  0.35025675     0.74100
C751        C  0.63148014  0.88147061  0.30982207     0.42100
N752        N  0.64606052  0.91502299  0.38832613     0.00600
N753        N  0.65373804  0.86752675  0.33602834     0.00700
N754        N  0.73361624  0.81687575  0.38583468    -0.47300
H755        H  0.75918818  0.91214355  0.36265502     0.06400
N756        N  0.72228323  0.87214534  0.34426397     0.00900
N757        N  0.65283785  0.83015549  0.36823542     0.00700
C758        C  0.63441310  0.80100352  0.38219189     0.42300
N759        N  0.66495968  0.92202758  0.39924851    -0.25900
C760        C  0.74131980  0.85375937  0.42901660    -0.06800
N761        N  0.72092772  0.93839101  0.39657434    -0.47000
N762        N  0.65095809  0.80748273  0.36746202    -0.47300
C763        C  0.73446475  0.85927343  0.45287745     0.42100
N764        N  0.72015439  0.83326360  0.37709018     0.00900
N765        N  0.66228536  0.88566527  0.43229864    -0.25900
N766        N  0.72921818  0.90384504  0.38295477    -0.26400
N767        N  0.64349822  0.87672641  0.42280076     0.00600
H768        H  0.67249319  0.89416299  0.46709820     0.06500
H769        H  0.61257552  0.82558553  0.40583060     0.06500
N770        N  0.70280666  0.82489439  0.36495605    -0.26500
N771        N  0.63863244  0.87962629  0.34833336    -0.26100
N772        N  0.71229849  0.87742141  0.42887590     0.00900
C773        C  0.72867967  0.88147296  0.30895523     0.42300
C774        C  0.66566171  0.94501000  0.40004920    -0.07400
N775        N  0.63829351  0.84046046  0.38269605    -0.26100
H776        H  0.60890812  0.90023800  0.33738750     0.06500
N777        N  0.73731683  0.88264386  0.33063262    -0.47300
H778        H  0.67879895  0.95513977  0.40869682     0.06500
C779        C  0.63758474  0.87721593  0.45983427     0.42200
C780        C  0.74515150  0.91779498  0.37370251    -0.06900
Co781      Co  0.68872310  0.90039320  0.41427940     0.73800
N782        N  0.63327342  0.93317593  0.38140139    -0.47000
C783        C  0.72429681  0.79655076  0.37922061     0.42400
N784        N  0.71652970  0.87435540  0.45119939    -0.47000
Co785      Co  0.64041433  0.87800884  0.38562337     0.73900
C786        C  0.62564589  0.82313808  0.39262742    -0.07400
C787        C  0.70706501  0.86848724  0.31019508    -0.06900
N788        N  0.72655347  0.86560351  0.41559998    -0.26400
N789        N  0.64996874  0.86800674  0.31351421    -0.47200
H790        H  0.69294911  0.79004902  0.35555122     0.06400
C791        C  0.66010850  0.88662922  0.45521989    -0.07300
Cl792      Cl  0.68294756  0.87343392  0.38254823    -0.50300
C793        C  0.64499608  0.95261009  0.38827644     0.42200
H794        H  0.75572613  0.84386904  0.42237337     0.06400
N795        N  0.62796274  0.87110475  0.43903906    -0.47000
C796        C  0.01003407  0.81522792  0.37385900     0.42000
N797        N  0.03368199  0.83913586  0.38962184     0.00900
C798        C  0.03843109  0.95663057  0.37178731    -0.06900
H799        H  0.05026687  0.90439071  0.29669141     0.06400
C800        C  0.12000234  0.87302108  0.32998781    -0.07300
Co801      Co  0.02094858  0.88771801  0.37828250     0.74200
N802        N  0.04105664  0.89883958  0.33248267    -0.26500
Co803      Co  0.06621470  0.91499058  0.35186003     0.74100
C804        C  0.11077186  0.88186218  0.30738274     0.42100
N805        N  0.10307906  0.84490061  0.38445658     0.00600
N806        N  0.09143428  0.89628038  0.33575700     0.00700
N807        N  0.00907224  0.93760771  0.38943901    -0.47300
H808        H  0.99033461  0.84488075  0.35554876     0.06400
N809        N  0.02352056  0.88846076  0.34258827     0.00900
N810        N  0.09094153  0.93065772  0.37095717     0.00700
C811        C  0.11039907  0.95901119  0.38457519     0.42300
N812        N  0.08445532  0.83575696  0.39407288    -0.25900
C813        C  0.00523183  0.89789745  0.42887390    -0.06800
N814        N  0.02828219  0.81685745  0.38851627    -0.47000
N815        N  0.09261364  0.95332858  0.37106807    -0.47300
C816        C  0.01315173  0.89052264  0.45176251     0.42100
N817        N  0.02361699  0.92316524  0.37926026     0.00900
N818        N  0.08433363  0.86982197  0.42972113    -0.25900
N819        N  0.01953830  0.85219453  0.37733278    -0.26400
N820        N  0.10232037  0.88106731  0.42112929     0.00600
H821        H  0.07353685  0.86040281  0.46414509     0.06500
H822        H  0.13479476  0.93358115  0.40457436     0.06500
N823        N  0.04088154  0.93375100  0.36888131    -0.26500
N824        N  0.10684081  0.88321137  0.34665982    -0.26100
N825        N  0.03413805  0.87425770  0.42603847     0.00900
C826        C  0.01722744  0.88440355  0.30636711     0.42300
C827        C  0.08616517  0.81280378  0.39467141    -0.07400
N828        N  0.10671614  0.91976103  0.38358770    -0.26100
H829        H  0.13386371  0.86085454  0.33341179     0.06500
N830        N  0.00870935  0.87960285  0.32758309    -0.47300
H831        H  0.07362514  0.80134703  0.40253796     0.06500
C832        C  0.10664846  0.88122068  0.45843670     0.42200
C833        C  0.00449489  0.83874043  0.36626825    -0.06900
Co834      Co  0.05908178  0.85450204  0.40995604     0.73800
N835        N  0.11822286  0.82834893  0.37845447    -0.47000
C836        C  0.01757415  0.95894940  0.38571654     0.42400
N837        N  0.03072016  0.87547653  0.44860478    -0.47000
Co838      Co  0.10596518  0.88224168  0.38401194     0.73900
C839        C  0.12019763  0.93657396  0.39315161    -0.07400
C840        C  0.03865064  0.89720967  0.30947972    -0.06900
N841        N  0.01940976  0.88698512  0.41407520    -0.26400
N842        N  0.09331646  0.89601927  0.31307105    -0.47200
H843        H  0.04961683  0.96991722  0.36482335     0.06400
C844        C  0.08571679  0.86893852  0.45275620    -0.07300
Cl845      Cl  0.06324323  0.88481155  0.38103478    -0.50300
C846        C  0.10846163  0.80759744  0.38456257     0.42200
H847        H  0.99089882  0.90912237  0.42419610     0.06400
N848        N  0.11630365  0.88849568  0.43803904    -0.47000
C849        C  0.87769716  0.01490152  0.31593899     0.42000
N850        N  0.88874287  0.03954538  0.34106709     0.00900
C851        C  0.86156512  0.04760925  0.45655055    -0.06900
H852        H  0.78940681  0.04833483  0.39854457     0.06400
C853        C  0.81907278  0.12418740  0.36924364    -0.07300
Co854      Co  0.87486905  0.02747295  0.38898254     0.74200
N855        N  0.82644412  0.04362850  0.39554843    -0.26500
Co856      Co  0.84221756  0.07158673  0.41216053     0.74100
C857        C  0.79699202  0.11404961  0.37751867     0.42100
N858        N  0.87554329  0.10768231  0.34280281     0.00600
N859        N  0.82540765  0.09468856  0.39132925     0.00700
N860        N  0.88282864  0.01904034  0.44029650    -0.47300
H861        H  0.86027649  0.99221086  0.34381886     0.06400
N862        N  0.83921771  0.02685552  0.38675013     0.00900
N863        N  0.85818563  0.09894197  0.42808010     0.00700
C864        C  0.86976959  0.12033138  0.45630845     0.42300
N865        N  0.88790950  0.08979970  0.33552461    -0.25900
C866        C  0.92588489  0.01713387  0.40358930    -0.06800
N867        N  0.88950938  0.03470399  0.31870533    -0.47000
N868        N  0.85718028  0.10176902  0.45067623    -0.47300
C869        C  0.94842283  0.02693476  0.39752843     0.42100
N870        N  0.87250554  0.03188472  0.42439448     0.00900
N871        N  0.92101599  0.09427498  0.37132721    -0.25900
N872        N  0.87736941  0.02403419  0.35326040    -0.26400
N873        N  0.91080962  0.11232321  0.38097324     0.00600
H874        H  0.95604472  0.08489060  0.36321172     0.06500
H875        H  0.88958231  0.14428393  0.43042405     0.06500
N876        N  0.85996030  0.04866040  0.43336951    -0.26500
N877        N  0.83595884  0.11096266  0.37908141    -0.26100
N878        N  0.92172615  0.04503880  0.37905120     0.00900
C879        C  0.80435958  0.01584684  0.38042289     0.42300
C880        C  0.88852053  0.08924789  0.31257099    -0.07400
N881        N  0.87068150  0.11475780  0.41720907    -0.26100
H882        H  0.82181692  0.13939509  0.35860405     0.06500
N883        N  0.82679713  0.00989821  0.37786861    -0.47300
H884        H  0.89809640  0.07683984  0.30226895     0.06500
C885        C  0.94781686  0.11866330  0.38170961     0.42200
C886        C  0.86958832  0.00762310  0.33881199    -0.06900
Co887      Co  0.90485443  0.06713629  0.35666112     0.73800
N888        N  0.86694796  0.11969475  0.32479847    -0.47000
C889        C  0.87690310  0.02788682  0.46111131     0.42400
N890        N  0.94432663  0.04398179  0.38208920    -0.47000
Co891      Co  0.87321782  0.11271681  0.37996561     0.73900
C892        C  0.87895978  0.12927436  0.43380125    -0.07400
C893        C  0.80401453  0.03820330  0.39252226    -0.06900
N894        N  0.91049518  0.02949984  0.39128053    -0.26400
N895        N  0.80265655  0.09610348  0.39101139    -0.47200
H896        H  0.85336189  0.05953362  0.46839660     0.06400
C897        C  0.94376838  0.09685972  0.37085680    -0.07300
Cl898      Cl  0.87368865  0.06991398  0.38437156    -0.50300
C899        C  0.87457301  0.10860136  0.30519238     0.42200
H900        H  0.92188515  0.00251369  0.41464132     0.06400
N901        N  0.92668015  0.12778393  0.38793214    -0.47000
C902        C  0.80372977  0.87181108  0.52061291     0.42000
N903        N  0.82781685  0.89029761  0.54179468     0.00900
C904        C  0.94511130  0.87205546  0.54494653    -0.06900
H905        H  0.89258366  0.79771792  0.55665213     0.06400
C906        C  0.86280798  0.82743668  0.62652503    -0.07300
Co907      Co  0.87616671  0.87967089  0.52818400     0.74200
N908        N  0.88760232  0.83325779  0.54707283    -0.26500
Co909      Co  0.90374465  0.85161681  0.57274218     0.74100
C910        C  0.87169869  0.80532000  0.61657889     0.42100
N911        N  0.83388006  0.88291026  0.61048234     0.00600
N912        N  0.88523640  0.83418869  0.59752498     0.00700
N913        N  0.92583086  0.89039724  0.51607021    -0.47300
H914        H  0.83312930  0.85592987  0.49868203     0.06400
N915        N  0.87728905  0.84368073  0.52960148     0.00900
N916        N  0.91973606  0.86960417  0.59814075     0.00700
C917        C  0.94864563  0.88060107  0.61876083     0.42300
N918        N  0.82485438  0.89388618  0.59241996    -0.25900
C919        C  0.88617777  0.93063986  0.51386585    -0.06800
N920        N  0.80535796  0.88679489  0.53851564    -0.47000
N921        N  0.94238929  0.86884759  0.60000368    -0.47300
C922        C  0.87977451  0.95343889  0.52298694     0.42100
N923        N  0.91152120  0.88057545  0.53090080     0.00900
N924        N  0.85880533  0.92881827  0.59332453    -0.25900
N925        N  0.84072647  0.87880610  0.52692202    -0.26400
N926        N  0.87015696  0.91965064  0.61110313     0.00600
H927        H  0.84880887  0.96342771  0.58357304     0.06500
H928        H  0.92369893  0.89973668  0.64423925     0.06500
N929        N  0.92224979  0.86966170  0.54786172    -0.26500
N930        N  0.87239741  0.84459330  0.61346309    -0.26100
N931        N  0.86298159  0.92708774  0.54291935     0.00900
C932        C  0.87339258  0.80737487  0.52288970     0.42300
C933        C  0.80195887  0.89515505  0.59413636    -0.07400
N934        N  0.90913364  0.88146644  0.61460510    -0.26100
H935        H  0.85133180  0.82999200  0.64112565     0.06500
N936        N  0.86851841  0.82880028  0.51457461    -0.47300
H937        H  0.79047996  0.90402151  0.58216996     0.06500
C938        C  0.86979580  0.95683821  0.61648741     0.42200
C939        C  0.82715713  0.86678821  0.51273960    -0.06900
Co940      Co  0.84342012  0.91014330  0.56748464     0.73800
N941        N  0.81713574  0.87588924  0.62490542    -0.47000
C942        C  0.94730221  0.88605965  0.52405008     0.42400
N943        N  0.86492831  0.94978454  0.54061991    -0.47000
Co944      Co  0.87139108  0.88218214  0.61370800     0.73900
C945        C  0.92633200  0.88956033  0.62871897    -0.07400
C946        C  0.88594492  0.81034237  0.54453088    -0.06900
N947        N  0.87525458  0.91551190  0.52762118    -0.26400
N948        N  0.88534532  0.81135854  0.59892758    -0.47200
H949        H  0.95849612  0.86425549  0.55551403     0.06400
C950        C  0.85754867  0.95173485  0.59542446    -0.07300
Cl951      Cl  0.87359421  0.88091892  0.57096570    -0.50300
C952        C  0.79667335  0.88345413  0.61537691     0.42200
H953        H  0.89697999  0.92600797  0.49929943     0.06400
N954        N  0.87752018  0.93621841  0.62553762    -0.47000
C955        C  0.12649367  0.05714123  0.39537071     0.42000
N956        N  0.12567692  0.09427541  0.40006621     0.00900
C957        C  0.17498753  0.14694418  0.49607261    -0.06900
H958        H  0.10501362  0.09148615  0.51460637     0.06400
C959        C  0.05369746  0.14458963  0.47014248    -0.07300
Co960      Co  0.15386234  0.10469793  0.44228645     0.74200
N961        N  0.12442087  0.10064797  0.48408995    -0.26500
Co962      Co  0.12382085  0.13639762  0.48235733     0.74100
C963        C  0.05273090  0.13242525  0.49223583     0.42100
N964        N  0.07578157  0.14284453  0.41471354     0.00600
N965        N  0.08808706  0.13583944  0.48218587     0.00700
N966        N  0.19378760  0.12551645  0.46926977    -0.47300
H967        H  0.14820152  0.05138498  0.42797068     0.06400
N968        N  0.13585015  0.08835311  0.46864822     0.00900
N969        N  0.12302383  0.17202070  0.47895905     0.00700
C970        C  0.12692508  0.20832193  0.48458779     0.42300
N971        N  0.08604097  0.13103468  0.39795578    -0.25900
C972        C  0.19383698  0.12043620  0.41428153    -0.06800
N973        N  0.11834830  0.07740839  0.38600627    -0.47000
N974        N  0.13265099  0.18724613  0.49300860    -0.47300
C975        C  0.19847250  0.13246784  0.39314612     0.42100
N976        N  0.17109116  0.12459736  0.46642092     0.00900
N977        N  0.12148120  0.16889850  0.39558210    -0.25900
N978        N  0.13739254  0.08558369  0.41780722    -0.26400
N979        N  0.10910396  0.17918438  0.41184465     0.00600
H980        H  0.14008790  0.18339303  0.36632612     0.06500
H981        H  0.10407305  0.21752337  0.45323576     0.06500
N982        N  0.15968452  0.13677391  0.48191243    -0.26500
N983        N  0.07632437  0.14580916  0.46531708    -0.26100
N984        N  0.16132171  0.13164915  0.39845174     0.00900
C985        C  0.12158006  0.06318627  0.49177224     0.42300
C986        C  0.06869965  0.12143896  0.38512614    -0.07400
N987        N  0.11111366  0.18187946  0.46211367    -0.26100
H988        H  0.03982005  0.15231391  0.46009207     0.06500
N989        N  0.13512380  0.06581916  0.47290344    -0.47300
H990        H  0.07121306  0.11055189  0.37008810     0.06500
C991        C  0.11978435  0.20828960  0.39105573     0.42200
C992        C  0.13889474  0.06269579  0.41617743    -0.06900
Co993      Co  0.12367823  0.13146418  0.39674872     0.73800
N994        N  0.05302164  0.14205847  0.41429568    -0.47000
C995        C  0.19773904  0.13971214  0.48736271     0.42400
N996        N  0.17763521  0.13928357  0.38378583    -0.47000
Co997      Co  0.09295815  0.16245208  0.43839262     0.73900
C998        C  0.11265621  0.20487292  0.46413398    -0.07400
C999        C  0.11479228  0.08629027  0.49947883    -0.06900
N1000       N  0.17099621  0.12083068  0.41627065    -0.26400
N1001       N  0.07464240  0.12777430  0.49886650    -0.47200
H1002       H  0.17059567  0.15705723  0.51122462     0.06400
C1003       C  0.12928738  0.18610272  0.38137858    -0.07300
Cl1004     Cl  0.12356986  0.13372717  0.43977234    -0.50300
C1005       C  0.04656406  0.12898833  0.39636110     0.42200
H1006       H  0.20578802  0.11205356  0.42612564     0.06400
N1007       N  0.10764597  0.20182923  0.40966183    -0.47000
C1008       C  0.62426712  0.04957725  0.37491102     0.42000
N1009       N  0.62180873  0.08616920  0.36737042     0.00900
C1010       C  0.57231204  0.12855184  0.26639066    -0.06900
H1011       H  0.64509365  0.07432973  0.25503799     0.06400
C1012       C  0.69212129  0.13309950  0.29511081    -0.07300
Co1013     Co  0.59323531  0.09149833  0.32429307     0.74200
N1014       N  0.62429575  0.08540900  0.28392298    -0.26500
Co1015     Co  0.62284534  0.12120872  0.28201723     0.74100
C1016       C  0.69441861  0.11853667  0.27443553     0.42100
N1017       N  0.66836981  0.13659071  0.34952313     0.00600
N1018       N  0.65847635  0.12245955  0.28299225     0.00700
N1019       N  0.55293825  0.10843203  0.29393261    -0.47300
H1020       H  0.60272400  0.03976521  0.34326063     0.06400
N1021       N  0.61293134  0.07399894  0.30004728     0.00900
N1022       N  0.62162608  0.15720035  0.28177536     0.00700
C1023       C  0.61627276  0.19290557  0.27348923     0.42300
N1024       N  0.65870206  0.12499208  0.36673469    -0.25900
C1025       C  0.55182069  0.10857874  0.35062942    -0.06800
N1026       N  0.63084938  0.07100617  0.38249085    -0.47000
N1027       N  0.61192315  0.17106628  0.26621058    -0.47300
C1028       C  0.54680866  0.12292977  0.37032012     0.42100
N1029       N  0.57560151  0.10831898  0.29773481     0.00900
N1030       N  0.62091461  0.16077633  0.36545675    -0.25900
N1031       N  0.61050740  0.07538188  0.35063621    -0.26400
N1032       N  0.63230022  0.17078872  0.34832261     0.00600
H1033       H  0.60145194  0.17562450  0.39397762     0.06500
H1034       H  0.63781197  0.20506705  0.30455683     0.06500
N1035       N  0.58719223  0.11975431  0.28178288    -0.26500
N1036       N  0.66927103  0.13443899  0.29903385    -0.26100
N1037       N  0.58395463  0.12177922  0.36533112     0.00900
C1038       C  0.62932302  0.04749525  0.27989814     0.42300
C1039       C  0.67642718  0.11661298  0.37996978    -0.07400
N1040       N  0.63242392  0.16878850  0.29813065    -0.26100
H1041       H  0.70528154  0.14193779  0.30505075     0.06500
N1042       N  0.61494405  0.05126060  0.29793409    -0.47300
H1043       H  0.67455442  0.10601906  0.39534870     0.06500
C1044       C  0.61923060  0.20018097  0.36727793     0.42200
C1045       C  0.61097816  0.05263188  0.35407788    -0.06900
Co1046     Co  0.62132130  0.12346622  0.36744324     0.73800
N1047       N  0.69109452  0.13685554  0.34995999    -0.47000
C1048       C  0.54960983  0.12115082  0.27453647     0.42400
N1049       N  0.56744311  0.13098608  0.37876979    -0.47000
Co1050     Co  0.65068650  0.15273763  0.32385129     0.73900
C1051       C  0.63005943  0.19141176  0.29438185    -0.07400
C1052       C  0.63525372  0.07014786  0.27039604    -0.06900
N1053       N  0.57472680  0.10903799  0.34867854    -0.26400
N1054       N  0.67274654  0.11296155  0.26783469    -0.47200
H1055       H  0.57698271  0.13817149  0.25097614     0.06400
C1056       C  0.61182173  0.17812893  0.37858272    -0.07300
Cl1057     Cl  0.62198181  0.12224159  0.32456751    -0.50300
C1058       C  0.69801474  0.12474422  0.36838854     0.42200
H1059       H  0.54007465  0.09924834  0.33941030     0.06400
N1060       N  0.63172417  0.19363484  0.34885364    -0.47000
C1061       C  0.13683334  0.77592323  0.05626236     0.42000
N1062       N  0.12898908  0.77882082  0.09235374     0.00900
C1063       C  0.06805671  0.86820183  0.14390935    -0.06900
H1064       H  0.13971351  0.89096119  0.08366479     0.06400
C1065       C  0.19256237  0.84491686  0.15053090    -0.07300
Co1066     Co  0.09528604  0.81680959  0.10188775     0.74200
N1067       N  0.12215246  0.86079354  0.09725418    -0.26500
Co1068     Co  0.12301641  0.85939810  0.13476268     0.74100
C1069       C  0.19784053  0.86503368  0.13707145     0.42100
N1070       N  0.17322901  0.79273447  0.14301979     0.00600
N1071       N  0.16065372  0.85928166  0.13631103     0.00700
N1072       N  0.05340759  0.83916543  0.12235070    -0.47300
H1073       H  0.11081837  0.80464422  0.04669643     0.06400
N1074       N  0.11067815  0.84427803  0.08643767     0.00900
N1075       N  0.12332491  0.85592485  0.17212782     0.00700
C1076       C  0.12249423  0.86012726  0.20948615     0.42300
N1077       N  0.16379831  0.77728750  0.12925243    -0.25900
C1078       C  0.05730704  0.78268813  0.11920058    -0.06800
N1079       N  0.14156006  0.76695519  0.07735754    -0.47000
N1080       N  0.11594840  0.87015211  0.18890521    -0.47300
C1081       C  0.05784343  0.76024622  0.13085347     0.42100
N1082       N  0.07623785  0.83947041  0.12158623     0.00900
N1083       N  0.12671987  0.77131194  0.16320582    -0.25900
N1084       N  0.11586991  0.79468395  0.08241211    -0.26400
N1085       N  0.13568977  0.78735555  0.17660257     0.00600
H1086       H  0.10797235  0.73988457  0.17022747     0.06500
H1087       H  0.14331336  0.82682196  0.21532199     0.06500
N1088       N  0.08573055  0.85630620  0.13389529    -0.26500
N1089       N  0.16998725  0.84224076  0.14850321    -0.26100
N1090       N  0.09252828  0.77213468  0.12670600     0.00900
C1091       C  0.12133374  0.86566933  0.05783222     0.42300
C1092       C  0.18073966  0.76566930  0.11840852    -0.07400
N1093       N  0.13415942  0.83779946  0.18108119    -0.26100
H1094       H  0.20405525  0.83351034  0.16008890     0.06500
N1095       N  0.10975779  0.84665677  0.06382928    -0.47300
H1096       H  0.17838028  0.75146797  0.10642558     0.06500
C1097       C  0.11970685  0.76372871  0.19999871     0.42200
C1098       C  0.11938969  0.79394979  0.05951198    -0.06900
Co1099     Co  0.12815102  0.77424117  0.12771289     0.73800
N1100       N  0.19611035  0.79234518  0.14252192    -0.47000
C1101       C  0.04641593  0.85662441  0.13599244     0.42400
N1102       N  0.08015036  0.75488909  0.13504681    -0.47000
Co1103     Co  0.15319695  0.81496866  0.16251875     0.73900
C1104       C  0.13431039  0.83884202  0.20401815    -0.07400
C1105       C  0.12982541  0.87546069  0.08039334    -0.06900
N1106       N  0.07970817  0.78860102  0.11738737    -0.26400
N1107       N  0.17720964  0.87367697  0.12861672    -0.47200
H1108       H  0.07018075  0.88273282  0.15551132     0.06400
C1109       C  0.11650663  0.75532992  0.17643578    -0.07300
Cl1110     Cl  0.12489719  0.81653903  0.13172633    -0.50300
C1111       C  0.20214356  0.77588822  0.12721617     0.42200
H1112       H  0.04269657  0.79242775  0.11249575     0.06400
N1113       N  0.13230113  0.78329609  0.19886595    -0.47000
C1114       C  0.04982989  0.62902432  0.28317469     0.42000
N1115       N  0.08644378  0.62577868  0.28872235     0.00900
C1116       C  0.13981873  0.58076172  0.38564632    -0.06900
H1117       H  0.07824133  0.65656598  0.39880218     0.06400
C1118       C  0.14057551  0.70335111  0.34694815    -0.07300
Co1119     Co  0.09680861  0.60073510  0.33220621     0.74200
N1120       N  0.09182672  0.63419191  0.37167917    -0.26500
Co1121     Co  0.12933457  0.63514724  0.37053560     0.74100
C1122       C  0.13025243  0.71024840  0.36869593     0.42100
N1123       N  0.13412503  0.67467395  0.29675243     0.00600
N1124       N  0.12975672  0.67251464  0.36581972     0.00700
N1125       N  0.11659327  0.56363049  0.35948769    -0.47300
H1126       H  0.04149824  0.60922783  0.31673505     0.06400
N1127       N  0.08089913  0.62057087  0.35684370     0.00900
N1128       N  0.16645131  0.63627265  0.36685828     0.00700
C1129       C  0.20366317  0.63754915  0.37169938     0.42300
N1130       N  0.12176760  0.66165300  0.28276554    -0.25900
C1131       C  0.11565860  0.55765972  0.30460601    -0.06800
N1132       N  0.07081017  0.63379274  0.27386138    -0.47000
N1133       N  0.18335048  0.63070031  0.38177224    -0.47300
C1134       C  0.12913482  0.55477305  0.28328033     0.42100
N1135       N  0.11629448  0.58622411  0.35732020     0.00900
N1136       N  0.15822837  0.62682936  0.28344659    -0.25900
N1137       N  0.07690199  0.61575290  0.30679660    -0.26400
N1138       N  0.17068381  0.63960867  0.29757562     0.00600
H1139       H  0.16695175  0.60673085  0.25323527     0.06500
H1140       H  0.20912389  0.65568199  0.33682628     0.06500
N1141       N  0.12936408  0.59746078  0.37240024    -0.26500
N1142       N  0.13961073  0.68038204  0.34673669    -0.26100
N1143       N  0.12362465  0.59091435  0.28957073     0.00900
C1144       C  0.05260932  0.63510506  0.37621701     0.42300
C1145       C  0.11091991  0.67516092  0.26735704    -0.07400
N1146       N  0.17496200  0.64606169  0.34796160    -0.26100
H1147       H  0.14867309  0.71362489  0.33356537     0.06500
N1148       N  0.05823035  0.62055699  0.35913593    -0.47300
H1149       H  0.10032920  0.66916961  0.25309895     0.06500
C1150       C  0.19542125  0.62550937  0.27378143     0.42200
C1151       C  0.05384556  0.61666514  0.30477399    -0.06900
Co1152     Co  0.12243677  0.62626709  0.28565824     0.73800
N1153       N  0.13262781  0.69691571  0.29158366    -0.47000
C1154       C  0.13080324  0.55814662  0.37677019     0.42400
N1155       N  0.13299333  0.57616924  0.27483054    -0.47000
Co1156     Co  0.15494888  0.66022384  0.32215954     0.73900
C1157       C  0.19791946  0.64760868  0.34949370    -0.07400
C1158       C  0.07510601  0.64450757  0.38481543    -0.06900
N1159       N  0.11344416  0.58070986  0.30718841    -0.26400
N1160       N  0.12377287  0.69013830  0.37972716    -0.47200
H1161       H  0.15178499  0.58390523  0.39974022     0.06400
C1162       C  0.17235990  0.61701596  0.26793455    -0.07300
Cl1163     Cl  0.12593203  0.63067565  0.32803337    -0.50300
C1164       C  0.11819784  0.69856347  0.27330313     0.42200
H1165       H  0.10839149  0.54458427  0.31590317     0.06400
N1166       N  0.19291238  0.63979179  0.29207635    -0.47000
C1167       C  0.85758410  0.11894982  0.05541566     0.42000
N1168       N  0.85188098  0.12135780  0.09241835     0.00900
C1169       C  0.74997370  0.08399072  0.14351034    -0.06900
H1170       H  0.74227392  0.15846712  0.09063426     0.06400
C1171       C  0.78996535  0.20000253  0.14594856    -0.07300
Co1172     Co  0.80635181  0.09874900  0.10192039     0.74200
N1173       N  0.76903219  0.13391022  0.09863162    -0.26500
Co1174     Co  0.77009985  0.13260105  0.13431395     0.74100
C1175       C  0.76929591  0.20398211  0.13196543     0.42100
N1176       N  0.84221805  0.17102896  0.14379101     0.00600
N1177       N  0.77497749  0.16762924  0.13504938     0.00700
N1178       N  0.77429567  0.06219747  0.12184445    -0.47300
H1179       H  0.82251774  0.10199999  0.04916486     0.06400
N1180       N  0.78316300  0.12135552  0.08591583     0.00900
N1181       N  0.77238012  0.13144618  0.17004548     0.00700
C1182       C  0.76519088  0.12531891  0.20600860     0.42300
N1183       N  0.85729174  0.15973200  0.13064793    -0.25900
C1184       C  0.82914354  0.05458237  0.11810561    -0.06800
N1185       N  0.86736524  0.12607773  0.07583582    -0.47000
N1186       N  0.75696091  0.12250066  0.18427697    -0.47300
C1187       C  0.84976489  0.04731194  0.13017504     0.42100
N1188       N  0.77979148  0.08437295  0.12098156     0.00900
N1189       N  0.85566617  0.12240021  0.16723023    -0.25900
N1190       N  0.83298979  0.11213756  0.08339373    -0.26400
N1191       N  0.84069853  0.13579612  0.17830951     0.00600
H1192       H  0.88348322  0.10056871  0.18061348     0.06500
H1193       H  0.79983601  0.14231640  0.21686970     0.06500
N1194       N  0.76584329  0.09739624  0.13337430    -0.26500
N1195       N  0.79229655  0.17688445  0.14647013    -0.26100
N1196       N  0.84883107  0.08490498  0.12877907     0.00900
C1197       C  0.76393480  0.14184536  0.06134924     0.42300
C1198       C  0.87073390  0.17634158  0.12049940    -0.07400
N1199       N  0.79031051  0.14017520  0.18099403    -0.26100
H1200       H  0.80096181  0.21235610  0.15471500     0.06500
N1201       N  0.78049861  0.12527123  0.06342203    -0.47300
H1202       H  0.88460155  0.17309881  0.10830832     0.06500
C1203       C  0.86075491  0.12186187  0.20626832     0.42200
C1204       C  0.83506327  0.10995115  0.06059008    -0.06900
Co1205     Co  0.85477277  0.12202572  0.12973605     0.73800
N1206       N  0.84429264  0.19368829  0.14335314    -0.47000
C1207       C  0.75573286  0.06057268  0.13585041     0.42400
N1208       N  0.86156397  0.06694393  0.13635574    -0.47000
Co1209     Co  0.81652676  0.15601273  0.16256341     0.73900
C1210       C  0.78751384  0.13707619  0.20385511    -0.07400
C1211       C  0.75590111  0.14704525  0.08475854    -0.06900
N1212       N  0.82990316  0.07758506  0.11809214    -0.26400
N1213       N  0.76063643  0.18316736  0.12638467    -0.47200
H1214       H  0.73587312  0.09008173  0.15426482     0.06400
C1215       C  0.86918746  0.11232411  0.18380369    -0.07300
Cl1216     Cl  0.81240522  0.12722949  0.13212245    -0.50300
C1217       C  0.86165806  0.19908510  0.12918851     0.42200
H1218       H  0.81599778  0.04416481  0.10979760     0.06400
N1219       N  0.84331759  0.13611141  0.20096043    -0.47000
C1220       C  0.75377036  0.56800089  0.63478327     0.42000
N1221       N  0.76687386  0.60231804  0.62990829     0.00900
C1222       C  0.87075081  0.63828583  0.58318102    -0.06900
H1223       H  0.88149968  0.57964671  0.65464679     0.06400
C1224       C  0.83220401  0.64443348  0.70614954    -0.07300
Co1225     Co  0.81209561  0.60351471  0.60561386     0.74200
N1226       N  0.85190392  0.59489267  0.63723316    -0.26500
Co1227     Co  0.85433181  0.63239033  0.63738817     0.74100
C1228       C  0.85188741  0.63006928  0.71205244     0.42100
N1229       N  0.78121930  0.64820254  0.67782256     0.00600
N1230       N  0.84984260  0.63353573  0.67462277     0.00700
N1231       N  0.84248088  0.61716540  0.56696082    -0.47300
H1232       H  0.78612220  0.55159771  0.61786787     0.06400
N1233       N  0.83458821  0.58513740  0.62587744     0.00900
N1234       N  0.85454258  0.67010256  0.63723903     0.00700
C1235       C  0.86078226  0.70711205  0.63389862     0.42300
N1236       N  0.76555289  0.63903493  0.66405383    -0.25900
C1237       C  0.78977363  0.62329326  0.56169067    -0.06800
N1238       N  0.74898305  0.59062007  0.63792527    -0.47000
N1239       N  0.86892866  0.68562137  0.62762397    -0.47300
C1240       C  0.77109959  0.63927197  0.55612162     0.42100
N1241       N  0.83995110  0.61842667  0.58955303     0.00900
N1242       N  0.77328481  0.67358716  0.62797668    -0.25900
N1243       N  0.78335311  0.58881610  0.62165251    -0.26400
N1244       N  0.78810386  0.68380188  0.64192750     0.00600
H1245       H  0.74943621  0.68650516  0.60228689     0.06500
H1246       H  0.82908817  0.71638375  0.65531819     0.06500
N1247       N  0.85619317  0.63054864  0.60010313    -0.26500
N1248       N  0.83223566  0.64555985  0.68312508    -0.26100
N1249       N  0.77416404  0.63631343  0.59305022     0.00900
C1250       C  0.85461389  0.55540027  0.63664691     0.42300
C1251       C  0.74863175  0.62993698  0.67680499    -0.07400
N1252       N  0.83765660  0.68073486  0.64852122    -0.26100
H1253       H  0.82017682  0.65340823  0.71740230     0.06500
N1254       N  0.83566708  0.56234026  0.62508830    -0.47300
H1255       H  0.73329740  0.62168641  0.66998826     0.06500
C1256       C  0.77312661  0.71167309  0.62238526     0.42200
C1257       C  0.77670905  0.56662161  0.62404322    -0.06900
Co1258     Co  0.76939877  0.63804655  0.62859156     0.73800
N1259       N  0.77596392  0.64566337  0.70008172    -0.47000
C1260       C  0.86128325  0.62911568  0.56080683     0.42400
N1261       N  0.76175466  0.64632719  0.57646215    -0.47000
Co1262     Co  0.80981404  0.66468388  0.66330679     0.73900
C1263       C  0.84048589  0.70358238  0.64771021    -0.07400
C1264       C  0.86560253  0.57728610  0.64504951    -0.06900
N1265       N  0.79037863  0.62262027  0.58475049    -0.26400
N1266       N  0.86232375  0.62384319  0.69167038    -0.47200
H1267       H  0.88588330  0.64882717  0.58620880     0.06400
C1268       C  0.76284896  0.68974422  0.61497343    -0.07300
Cl1269     Cl  0.81158443  0.63458923  0.63380504    -0.50300
C1270       C  0.75589909  0.63359289  0.70063725     0.42200
H1271       H  0.80063502  0.61315835  0.55030976     0.06400
N1272       N  0.78827269  0.70657782  0.63941199    -0.47000
C1273       C  0.12702489  0.05122205  0.86527766     0.42000
N1274       N  0.12311574  0.08840441  0.86208888     0.00900
C1275       C  0.07644222  0.13804599  0.76299106    -0.06900
H1276       H  0.15117258  0.08323852  0.75053343     0.06400
C1277       C  0.19641660  0.14020899  0.79612237    -0.07300
Co1278     Co  0.09675784  0.09705813  0.81832982     0.74200
N1279       N  0.12874699  0.09324023  0.77867535    -0.26500
Co1280     Co  0.12761036  0.12903340  0.77924816     0.74100
C1281       C  0.19957229  0.12628121  0.77522404     0.42100
N1282       N  0.17014491  0.14019279  0.84991728     0.00600
N1283       N  0.16329933  0.12984254  0.78217007     0.00700
N1284       N  0.05743356  0.11603359  0.78927300    -0.47300
H1285       H  0.10682316  0.04436289  0.83220086     0.06400
N1286       N  0.11687317  0.08122517  0.79389197     0.00900
N1287       N  0.12675885  0.16474758  0.78090250     0.00700
C1288       C  0.12219848  0.20062748  0.77292312     0.42300
N1289       N  0.15947729  0.12736362  0.86563050    -0.25900
C1290       C  0.05446784  0.11120237  0.84316411    -0.06800
N1291       N  0.13182698  0.07185524  0.87598575    -0.47000
N1292       N  0.11800751  0.17898424  0.76521065    -0.47300
C1293       C  0.04730446  0.12431580  0.86315062     0.42100
N1294       N  0.08003998  0.11565784  0.79279820     0.00900
N1295       N  0.12180896  0.16337713  0.86480805    -0.25900
N1296       N  0.11309330  0.07911571  0.84374391    -0.26400
N1297       N  0.13401143  0.17431390  0.84879459     0.00600
H1298       H  0.10060341  0.17685271  0.89281672     0.06500
H1299       H  0.14087351  0.21182148  0.80641518     0.06500
N1300       N  0.09163238  0.12810688  0.77762616    -0.26500
N1301       N  0.17338751  0.14118881  0.79917156    -0.26100
N1302       N  0.08498015  0.12419230  0.86088407     0.00900
C1303       C  0.13394118  0.05547768  0.77371045     0.42300
C1304       C  0.17627005  0.11772491  0.87913945    -0.07400
N1305       N  0.13659973  0.17574637  0.79824680    -0.26100
H1306       H  0.20926852  0.14864519  0.80682279     0.06500
N1307       N  0.11922727  0.05864897  0.79136842    -0.47300
H1308       H  0.17337429  0.10619550  0.89365792     0.06500
C1309       C  0.11963006  0.20271326  0.86826270     0.42200
C1310       C  0.11434903  0.05621616  0.84457235    -0.06900
Co1311     Co  0.12223930  0.12585548  0.86474670     0.73800
N1312       N  0.19283587  0.14039585  0.85194408    -0.47000
C1313       C  0.05382590  0.13000674  0.77097941     0.42400
N1314       N  0.06723860  0.13191510  0.87376486    -0.47000
Co1315     Co  0.15367272  0.15803329  0.82416229     0.73900
C1316       C  0.13434054  0.19856837  0.79496193    -0.07400
C1317       C  0.14022334  0.07845789  0.76496733    -0.06900
N1318       N  0.07724860  0.11250347  0.84288283    -0.26400
N1319       N  0.17826720  0.12089238  0.76735024    -0.47200
H1320       H  0.08071802  0.14890406  0.74830005     0.06400
C1321       C  0.11185026  0.18009522  0.87819539    -0.07300
Cl1322     Cl  0.12505661  0.12757969  0.82197150    -0.50300
C1323       C  0.19848717  0.12674486  0.86979351     0.42200
H1324       H  0.04463119  0.10154968  0.83057195     0.06400
N1325       N  0.13317072  0.19706587  0.85032833    -0.47000
C1326       C  0.62028374  0.27208743  0.06032057     0.42000
N1327       N  0.61907072  0.27804313  0.09675059     0.00900
C1328       C  0.57134170  0.37455346  0.14927339    -0.06900
H1329       H  0.64541137  0.38856581  0.08831161     0.06400
C1330       C  0.69487342  0.33805778  0.15020243    -0.07300
Co1331     Co  0.59221127  0.32043846  0.10771987     0.74200
N1332       N  0.62392783  0.36112288  0.10217584    -0.26500
Co1333     Co  0.62571595  0.35964490  0.13955151     0.74100
C1334       C  0.70092202  0.35978036  0.13949531     0.42100
N1335       N  0.66826074  0.28739726  0.14419513     0.00600
N1336       N  0.66328537  0.35604086  0.13964160     0.00700
N1337       N  0.55435278  0.34663830  0.12816075    -0.47300
H1338       H  0.59904536  0.30489775  0.05230213     0.06400
N1339       N  0.61049035  0.34596918  0.09153985     0.00900
N1340       N  0.62717446  0.35545313  0.17664786     0.00700
C1341       C  0.62653519  0.35836128  0.21393803     0.42300
N1342       N  0.65607736  0.27272779  0.13174603    -0.25900
C1343       C  0.55091950  0.29160603  0.12723785    -0.06800
N1344       N  0.62665847  0.26320663  0.08103697    -0.47000
N1345       N  0.62015512  0.36930490  0.19385968    -0.47300
C1346       C  0.54895051  0.27012226  0.14048862     0.42100
N1347       N  0.57699911  0.34482961  0.12768441     0.00900
N1348       N  0.62128582  0.27174822  0.16789364    -0.25900
N1349       N  0.60793956  0.29573550  0.08748843    -0.26400
N1350       N  0.63336998  0.28638034  0.18043337     0.00600
H1351       H  0.60068605  0.24192281  0.17647492     0.06500
H1352       H  0.64584682  0.32418944  0.21907725     0.06500
N1353       N  0.58808541  0.36077541  0.13976331    -0.26500
N1354       N  0.67189157  0.33726127  0.14960937    -0.26100
N1355       N  0.58473208  0.27690034  0.13389506     0.00900
C1356       C  0.62360233  0.36587537  0.06289160     0.42300
C1357       C  0.67061852  0.25772689  0.12158496    -0.07400
N1358       N  0.63747717  0.33664737  0.18489723    -0.26100
H1359       H  0.70589365  0.32502572  0.15805314     0.06500
N1360       N  0.60982411  0.34831936  0.06888698    -0.47300
H1361       H  0.66568636  0.24290281  0.11125546     0.06500
C1362       C  0.61863020  0.26318192  0.20503107     0.42200
C1363       C  0.60775954  0.29351514  0.06444930    -0.06900
Co1364     Co  0.62033922  0.27429382  0.13240955     0.73800
N1365       N  0.69070030  0.28322672  0.14345247    -0.47000
C1366       C  0.54871270  0.36470593  0.14132276     0.42400
N1367       N  0.57057574  0.26178101  0.14354209    -0.47000
Co1368     Co  0.65280096  0.31190135  0.16489190     0.73900
C1369       C  0.63784365  0.33703338  0.20792181    -0.07400
C1370       C  0.63332520  0.37463715  0.08527396    -0.06900
N1371       N  0.57377911  0.29454366  0.12437343    -0.26400
N1372       N  0.68041584  0.37031317  0.13318155    -0.47200
H1373       H  0.57451215  0.38938334  0.16025488     0.06400
C1374       C  0.61117525  0.25641673  0.18190870    -0.07300
Cl1375     Cl  0.62284026  0.31675801  0.13611716    -0.50300
C1376       C  0.69355530  0.26518142  0.12910259     0.42200
H1377       H  0.53740771  0.30286716  0.12062282     0.06400
N1378       N  0.63252398  0.28171358  0.20283707    -0.47000
C1379       C  0.04626271  0.36427459  0.63029198     0.42000
N1380       N  0.08347330  0.35946856  0.62985906     0.00900
C1381       C  0.13505962  0.26383354  0.57930786    -0.06900
H1382       H  0.07651652  0.24664806  0.64967632     0.06400
C1383       C  0.13135474  0.29000160  0.70026233    -0.07300
Co1384     Co  0.09297699  0.31785224  0.60044615     0.74200
N1385       N  0.08742007  0.27614202  0.62959453    -0.26500
Co1386     Co  0.12323098  0.27630515  0.63042363     0.74100
C1387       C  0.11746405  0.26910282  0.70219292     0.42100
N1388       N  0.13379508  0.34381456  0.67823792     0.00600
N1389       N  0.12276294  0.27689628  0.66631025     0.00700
N1390       N  0.11458225  0.29159552  0.56047951    -0.47300
H1391       H  0.04011127  0.33263020  0.60752380     0.06400
N1392       N  0.07594710  0.29207937  0.61793062     0.00900
N1393       N  0.15893142  0.27740308  0.63107818     0.00700
C1394       C  0.19479803  0.26948289  0.62674682     0.42300
N1395       N  0.12166802  0.36063192  0.66842670    -0.25900
C1396       C  0.10787913  0.34699310  0.56078482    -0.06800
N1397       N  0.06675512  0.37325978  0.63818494    -0.47000
N1398       N  0.17324498  0.26225177  0.62154341    -0.47300
C1399       C  0.11947741  0.36847916  0.55675379     0.42100
N1400       N  0.11245992  0.29342933  0.58318970     0.00900
N1401       N  0.15822228  0.36166795  0.63170213    -0.25900
N1402       N  0.07448036  0.34234156  0.61763281    -0.26400
N1403       N  0.16877225  0.34474513  0.64311414     0.00600
H1404       H  0.17214307  0.39081992  0.61263812     0.06500
H1405       H  0.20594065  0.30107407  0.64834349     0.06500
N1406       N  0.12399307  0.27731913  0.59458962    -0.26500
N1407       N  0.13371294  0.29341453  0.67751224    -0.26100
N1408       N  0.12010742  0.36125396  0.59351276     0.00900
C1409       C  0.04955411  0.27081465  0.63231370     0.42300
C1410       C  0.11323978  0.37390760  0.68604513    -0.07400
N1411       N  0.16978131  0.29395815  0.64231267    -0.26100
H1412       H  0.13901276  0.30049032  0.71374365     0.06500
N1413       N  0.05323212  0.28946518  0.61889099    -0.47300
H1414       H  0.10272916  0.38923762  0.68357174     0.06500
C1415       C  0.19750886  0.36501619  0.63099908     0.42200
C1416       C  0.05160219  0.34409597  0.61684561    -0.06900
Co1417     Co  0.12081925  0.36201404  0.63094555     0.73800
N1418       N  0.13445389  0.34478682  0.70101462    -0.47000
C1419       C  0.12912381  0.27369807  0.55674622     0.42400
N1420       N  0.12711108  0.37668775  0.57766688    -0.47000
Co1421     Co  0.15167042  0.31903184  0.66036605     0.73900
C1422       C  0.19263755  0.29051107  0.64050154    -0.07400
C1423       C  0.07220134  0.26173655  0.63935127    -0.06900
N1424       N  0.10917579  0.34384666  0.58349954    -0.26400
N1425       N  0.11308212  0.26166601  0.68042909    -0.47200
H1426       H  0.14552542  0.24877965  0.58345262     0.06400
C1427       C  0.17515788  0.37553801  0.62309849    -0.07300
Cl1428     Cl  0.12217010  0.31917164  0.63057050    -0.50300
C1429       C  0.12202889  0.36308146  0.70806364     0.42200
H1430       H  0.09902029  0.33581403  0.54864186     0.06400
N1431       N  0.19152607  0.34618876  0.64313979    -0.47000
C1432       C  0.12413891  0.48832475  0.06170569     0.42000
N1433       N  0.12695017  0.48205476  0.09815887     0.00900
C1434       C  0.17688602  0.38542183  0.14849503    -0.06900
H1435       H  0.10526293  0.37023816  0.08655858     0.06400
C1436       C  0.05234416  0.41606408  0.14746043    -0.07300
Co1437     Co  0.15493381  0.44026914  0.10817935     0.74200
N1438       N  0.12527647  0.39839565  0.10064604    -0.26500
Co1439     Co  0.12271887  0.39895470  0.13801221     0.74100
C1440       C  0.04828810  0.39462063  0.13578214     0.42100
N1441       N  0.07634731  0.46863254  0.14245327     0.00600
N1442       N  0.08524798  0.40066349  0.13701999     0.00700
N1443       N  0.19372757  0.41405712  0.12797332    -0.47300
H1444       H  0.14494103  0.45516299  0.05328594     0.06400
N1445       N  0.13810734  0.41431744  0.09039161     0.00900
N1446       N  0.12029271  0.40231844  0.17513023     0.00700
C1447       C  0.12085956  0.39807798  0.21232636     0.42300
N1448       N  0.08863546  0.48388474  0.13087254    -0.25900
C1449       C  0.19434333  0.47086080  0.12899670    -0.06800
N1450       N  0.11828010  0.49664456  0.08276383    -0.47000
N1451       N  0.12896252  0.38900087  0.19203332    -0.47300
C1452       C  0.19528236  0.49311424  0.14107458     0.42100
N1453       N  0.17102220  0.41576129  0.12760496     0.00900
N1454       N  0.12165812  0.48601571  0.16948864    -0.25900
N1455       N  0.13834791  0.46487186  0.08850425    -0.26400
N1456       N  0.10937413  0.47066189  0.18098836     0.00600
H1457       H  0.14129598  0.51591700  0.18022157     0.06500
H1458       H  0.09843319  0.43022168  0.21822311     0.06500
N1459       N  0.16014149  0.39927702  0.13916712    -0.26500
N1460       N  0.07519192  0.41848108  0.14735601    -0.26100
N1461       N  0.15986486  0.48340734  0.13621126     0.00900
C1462       C  0.12602133  0.39411899  0.06121984     0.42300
C1463       C  0.07435498  0.49656425  0.11763011    -0.07400
N1464       N  0.10806039  0.41974825  0.18374725    -0.26100
H1465       H  0.04008377  0.42768273  0.15560935     0.06500
N1466       N  0.13900959  0.41227803  0.06761672    -0.47300
H1467       H  0.07958473  0.51057115  0.10632952     0.06500
C1468       C  0.12223795  0.49339924  0.20715038     0.42200
C1469       C  0.13734004  0.46709755  0.06548555    -0.06900
Co1470     Co  0.12427293  0.48441049  0.13372516     0.73800
N1471       N  0.05394559  0.47026959  0.13805455    -0.47000
C1472       C  0.19929787  0.39555014  0.14070514     0.42400
N1473       N  0.17322023  0.49977520  0.14492815    -0.47000
Co1474     Co  0.09210043  0.44447889  0.16382597     0.73900
C1475       C  0.10729754  0.41831016  0.20676073    -0.07400
C1476       C  0.11665009  0.38471534  0.08353691    -0.06900
N1477       N  0.17170012  0.46649093  0.12644829    -0.26400
N1478       N  0.06933995  0.38561621  0.12940271    -0.47200
H1479       H  0.17384889  0.36986746  0.15852983     0.06400
C1480       C  0.13066878  0.50113084  0.18458098    -0.07300
Cl1481     Cl  0.12355342  0.44167253  0.13603644    -0.50300
C1482       C  0.05124364  0.48727381  0.12222997     0.42200
H1483       H  0.20833172  0.46051148  0.12196367     0.06400
N1484       N  0.10908900  0.47450751  0.20359292    -0.47000
C1485       C  0.45041505  0.38348720  0.14882023     0.42000
N1486       N  0.41328804  0.38355795  0.15441728     0.00900
C1487       C  0.36834645  0.42342210  0.25874889    -0.06900
H1488       H  0.42550552  0.35321254  0.26504412     0.06400
C1489       C  0.36719225  0.30727823  0.21635738    -0.07300
Co1490     Co  0.40543701  0.40893990  0.19915379     0.74200
N1491       N  0.41313253  0.37494701  0.23711986    -0.26500
Co1492     Co  0.37734986  0.37460892  0.23830137     0.74100
C1493       C  0.38292525  0.30238387  0.23531484     0.42100
N1494       N  0.36218322  0.33452771  0.16664458     0.00600
N1495       N  0.37720679  0.33902332  0.23325434     0.00700
N1496       N  0.38673881  0.44579648  0.23232713    -0.47300
H1497       H  0.45734843  0.40368766  0.18194170     0.06400
N1498       N  0.42376620  0.38839842  0.22211135     0.00900
N1499       N  0.34163282  0.37532240  0.23825925     0.00700
C1500       C  0.30633125  0.38225547  0.24675356     0.42300
N1501       N  0.37456852  0.34523373  0.15069669    -0.25900
C1502       C  0.38676430  0.45145296  0.17580638    -0.06800
N1503       N  0.42971463  0.37610693  0.13976124    -0.47000
N1504       N  0.32829017  0.38499064  0.25414770    -0.47300
C1505       C  0.37360091  0.45750473  0.15544234     0.42100
N1506       N  0.38769806  0.42357097  0.22673155     0.00900
N1507       N  0.33825647  0.38257187  0.15419158    -0.25900
N1508       N  0.42273793  0.39450178  0.17217180    -0.26400
N1509       N  0.32838842  0.37013518  0.17066721     0.00600
H1510       H  0.32291260  0.40347501  0.12681111     0.06500
H1511       H  0.29302895  0.36308453  0.21453384     0.06500
N1512       N  0.37733784  0.41019663  0.24199595    -0.26500
N1513       N  0.36484669  0.33021723  0.21629144    -0.26100
N1514       N  0.37630587  0.42006915  0.15772001     0.00900
C1515       C  0.45118459  0.37334729  0.24198201     0.42300
C1516       C  0.38265977  0.32819967  0.13632507    -0.07400
N1517       N  0.32972536  0.36619797  0.22111989    -0.26100
H1518       H  0.35850277  0.29544649  0.20485238     0.06500
N1519       N  0.44650788  0.38813682  0.22455284    -0.47300
H1520       H  0.39347246  0.33119516  0.12134492     0.06500
C1521       C  0.29877472  0.38362444  0.15250057     0.42200
C1522       C  0.44553479  0.39547969  0.16993819    -0.06900
Co1523     Co  0.37575799  0.38289419  0.15295650     0.73800
N1524       N  0.36088165  0.31196442  0.16404994    -0.47000
C1525       C  0.37458909  0.44701740  0.25225280     0.42400
N1526       N  0.36743268  0.43722993  0.14480954    -0.47000
Co1527     Co  0.34610823  0.35027312  0.19370473     0.73900
C1528       C  0.30712079  0.36926332  0.22520124    -0.07400
C1529       C  0.42905686  0.36448970  0.25047107    -0.06900
N1530       N  0.38747737  0.42846397  0.17586650    -0.26400
N1531       N  0.38811665  0.32285964  0.24546714    -0.47200
H1532       H  0.35932070  0.41717335  0.27394443     0.06400
C1533       C  0.32066059  0.39212047  0.14156262    -0.07300
Cl1534     Cl  0.37619681  0.37920388  0.19585248    -0.50300
C1535       C  0.37326083  0.30570171  0.14559908     0.42200
H1536       H  0.39501920  0.46251374  0.18845917     0.06400
N1537       N  0.30565125  0.37022111  0.17010605    -0.47000
C1538       C  0.70625864  0.62953735  0.48517821     0.42000
N1539       N  0.66977106  0.62427774  0.48189391     0.00900
C1540       C  0.61301380  0.57249593  0.39055620    -0.06900
H1541       H  0.67590305  0.64773480  0.37280501     0.06400
C1542       C  0.61393477  0.69676935  0.42039938    -0.07300
Co1543     Co  0.65783819  0.59481050  0.44168139     0.74200
N1544       N  0.66223627  0.62520393  0.39980236    -0.26500
Co1545     Co  0.62477061  0.62703235  0.40207334     0.74100
C1546       C  0.62437237  0.70187884  0.39848162     0.42100
N1547       N  0.62230729  0.67303080  0.47189408     0.00600
N1548       N  0.62482173  0.66459713  0.40388322     0.00700
N1549       N  0.63580966  0.55559477  0.41757090    -0.47300
H1550       H  0.71385591  0.60615150  0.45370770     0.06400
N1551       N  0.67323213  0.61185088  0.41493185     0.00900
N1552       N  0.58779368  0.62905425  0.40703978     0.00700
C1553       C  0.55032739  0.63015349  0.40367575     0.42300
N1554       N  0.63550159  0.66143104  0.48648589    -0.25900
C1555       C  0.63819753  0.55536659  0.47267429    -0.06800
N1556       N  0.68553279  0.63491626  0.49449584    -0.47000
N1557       N  0.57034705  0.62307149  0.39306555    -0.47300
C1558       C  0.62514987  0.55460970  0.49425246     0.42100
N1559       N  0.63701405  0.57837951  0.41845147     0.00900
N1560       N  0.59925826  0.62720096  0.49136803    -0.25900
N1561       N  0.67880442  0.61214757  0.46487319    -0.26400
N1562       N  0.58593632  0.63846941  0.47663759     0.00600
H1563       H  0.59296806  0.61044607  0.52400737     0.06500
H1564       H  0.54649608  0.64981689  0.43804736     0.06500
N1565       N  0.62412159  0.58930346  0.40283503    -0.26500
N1566       N  0.61495295  0.67389782  0.42232797    -0.26100
N1567       N  0.63296227  0.58985938  0.48631779     0.00900
C1568       C  0.70152308  0.62617594  0.39561059     0.42300
C1569       C  0.64704157  0.67655789  0.49967787    -0.07400
N1570       N  0.57994871  0.63968804  0.42574902    -0.26100
H1571       H  0.60601160  0.70842553  0.43277520     0.06500
N1572       N  0.69590427  0.61192574  0.41288921    -0.47300
H1573       H  0.65828158  0.67206404  0.51403490     0.06500
C1574       C  0.56294482  0.62730685  0.50343927     0.42200
C1575       C  0.70190243  0.61416382  0.46563450    -0.06900
Co1576     Co  0.63455019  0.62562772  0.48703089     0.73800
N1577       N  0.62387755  0.69570185  0.47442659    -0.47000
C1578       C  0.62106125  0.55007187  0.40067895     0.42400
N1579       N  0.62292670  0.57652662  0.50196325    -0.47000
Co1580     Co  0.60060626  0.65620001  0.44915395     0.73900
C1581       C  0.55696486  0.64097082  0.42526580    -0.07400
C1582       C  0.67897148  0.63524234  0.38649515    -0.06900
N1583       N  0.64184822  0.57799246  0.46897131    -0.26400
N1584       N  0.63093254  0.68115393  0.38871575    -0.47200
H1585       H  0.60101089  0.57545384  0.37641933     0.06400
C1586       C  0.58636758  0.61937615  0.50885342    -0.07300
Cl1587     Cl  0.62935078  0.62589443  0.44478876    -0.50300
C1588       C  0.63954321  0.69936233  0.49131703     0.42200
H1589       H  0.64370668  0.54130299  0.46156871     0.06400
N1590       N  0.56401294  0.63920798  0.48330328    -0.47000
C1591       C  0.60887230  0.29911499  0.38540644     0.42000
N1592       N  0.60522625  0.33659129  0.38717339     0.00900
C1593       C  0.50596529  0.38943393  0.42833025    -0.06900
H1594       H  0.49424965  0.33453011  0.35562613     0.06400
C1595       C  0.54413008  0.38749728  0.31045252    -0.07300
Co1596     Co  0.56107248  0.34668532  0.41233762     0.74200
N1597       N  0.52244918  0.34351491  0.37844939    -0.26500
Co1598     Co  0.52372754  0.37935759  0.37881077     0.74100
C1599       C  0.52384558  0.37293574  0.30691935     0.42100
N1600       N  0.59588879  0.38867615  0.33861163     0.00600
N1601       N  0.52792904  0.37937441  0.34320151     0.00700
N1602       N  0.53078430  0.36768128  0.44968548    -0.47300
H1603       H  0.57513627  0.29318172  0.40498580     0.06400
N1604       N  0.53669763  0.33101850  0.39124394     0.00900
N1605       N  0.52566886  0.41544414  0.37930604     0.00700
C1606       C  0.51865680  0.45167631  0.38462680     0.42300
N1607       N  0.61070470  0.37548365  0.35025278    -0.25900
C1608       C  0.58625267  0.36191305  0.45584264    -0.06800
N1609       N  0.61912807  0.31967259  0.37924901    -0.47000
N1610       N  0.51052143  0.43006750  0.38853535    -0.47300
C1611       C  0.60690473  0.37454365  0.46184761     0.42100
N1612       N  0.53537529  0.36637615  0.42729134     0.00900
N1613       N  0.60863294  0.41187114  0.38747864    -0.25900
N1614       N  0.58681605  0.32769512  0.39743411    -0.26400
N1615       N  0.59344052  0.42306495  0.37428438     0.00600
H1616       H  0.63464070  0.42520669  0.41131833     0.06500
H1617       H  0.55146618  0.46236075  0.36468708     0.06500
N1618       N  0.52107983  0.37879275  0.41447777    -0.26500
N1619       N  0.54544094  0.39020106  0.33348849    -0.26100
N1620       N  0.60383328  0.37318021  0.42442797     0.00900
C1621       C  0.51530973  0.30604210  0.37427368     0.42300
C1622       C  0.62484996  0.36537561  0.33438892    -0.07400
N1623       N  0.54313711  0.42610215  0.36932625    -0.26100
H1624       H  0.55588987  0.39471887  0.29778571     0.06500
N1625       N  0.53286270  0.30850113  0.38947878    -0.47300
H1626       H  0.63875698  0.35331638  0.33819210     0.06500
C1627       C  0.61114160  0.45098891  0.39088563     0.42200
C1628       C  0.58781073  0.30468259  0.39738872    -0.06900
Co1629     Co  0.60837881  0.37422711  0.38736936     0.73800
N1630       N  0.59912237  0.38857879  0.31600847    -0.47000
C1631       C  0.51259084  0.38216708  0.45173681     0.42400
N1632       N  0.61717885  0.38125337  0.44156192    -0.47000
Co1633     Co  0.56958445  0.40719879  0.35372056     0.73900
C1634       C  0.54007810  0.44911686  0.37142401    -0.07400
C1635       C  0.50826583  0.32925603  0.36697146    -0.06900
N1636       N  0.58560616  0.36215941  0.43274454    -0.26400
N1637       N  0.51443811  0.36899982  0.32793452    -0.47200
H1638       H  0.49177578  0.40026742  0.42248924     0.06400
C1639       C  0.62096560  0.42842612  0.39885697    -0.07300
Cl1640     Cl  0.56604422  0.37686217  0.38309415    -0.50300
C1641       C  0.61710754  0.37462232  0.31166476     0.42200
H1642       H  0.57369653  0.35373596  0.46707784     0.06400
N1643       N  0.59444633  0.44580265  0.37581484    -0.47000
C1644       C  0.26961492  0.05600682  0.63761846     0.42000
N1645       N  0.27514125  0.09170760  0.62961289     0.00900
C1646       C  0.37133348  0.13879755  0.57797808    -0.06900
H1647       H  0.38455514  0.08118052  0.65817467     0.06400
C1648       C  0.33518843  0.14822416  0.70001636    -0.07300
Co1649     Co  0.31781276  0.09781686  0.60153531     0.74200
N1650       N  0.35798629  0.09389625  0.63445994    -0.26500
Co1651     Co  0.35742975  0.13151225  0.63240843     0.74100
C1652       C  0.35535291  0.13537776  0.70736655     0.42100
N1653       N  0.28473837  0.14396573  0.67334961     0.00600
N1654       N  0.35319526  0.13479414  0.66968330     0.00700
N1655       N  0.34484540  0.11537962  0.56159045    -0.47300
H1656       H  0.30144520  0.04444496  0.61681907     0.06400
N1657       N  0.34262857  0.08242836  0.62196530     0.00900
N1658       N  0.35478800  0.16888388  0.63019893     0.00700
C1659       C  0.35928754  0.20595098  0.62673096     0.42300
N1660       N  0.27005816  0.13066095  0.66214425    -0.25900
C1661       C  0.28966987  0.11433782  0.55800155    -0.06800
N1662       N  0.26075960  0.07752890  0.64036782    -0.47000
N1663       N  0.36935970  0.18494721  0.62196562    -0.47300
C1664       C  0.26833197  0.12768340  0.55453637     0.42100
N1665       N  0.34321471  0.11538422  0.58439337     0.00900
N1666       N  0.27105395  0.16319494  0.62321121    -0.25900
N1667       N  0.29243987  0.08063775  0.61962596    -0.26400
N1668       N  0.28626870  0.17605317  0.63420978     0.00600
H1669       H  0.24169591  0.17165687  0.60155429     0.06500
H1670       H  0.32531367  0.21390637  0.64513087     0.06500
N1671       N  0.35849765  0.12875552  0.59496022    -0.26500
N1672       N  0.33505223  0.14672779  0.67705293    -0.26100
N1673       N  0.27500345  0.12455801  0.59090197     0.00900
C1674       C  0.36094566  0.05455732  0.63912631     0.42300
C1675       C  0.25495313  0.12183269  0.67737933    -0.07400
N1676       N  0.33632069  0.17874292  0.63949797    -0.26100
H1677       H  0.32260762  0.15759942  0.71028661     0.06500
N1678       N  0.34390211  0.05972850  0.62423568    -0.47300
H1679       H  0.24047958  0.11071055  0.67323616     0.06500
C1680       C  0.26465321  0.20068531  0.61653866     0.42200
C1681       C  0.29024877  0.05794888  0.62346931    -0.06900
Co1682     Co  0.27220066  0.12738963  0.62646038     0.73800
N1683       N  0.28044069  0.14515483  0.69582426    -0.47000
C1684       C  0.36199236  0.12973133  0.55563697     0.42400
N1685       N  0.26027588  0.13334325  0.57568459    -0.47000
Co1686     Co  0.31060882  0.16148778  0.65607664     0.73900
C1687       C  0.33770416  0.20166135  0.63813569    -0.07400
C1688       C  0.37068226  0.07754195  0.64610498    -0.06900
N1689       N  0.29239591  0.11344737  0.58113384    -0.26400
N1690       N  0.36605608  0.12742403  0.68764250    -0.47200
H1691       H  0.38523469  0.15096909  0.58086736     0.06400
C1692       C  0.25658273  0.17719644  0.61149433    -0.07300
Cl1693     Cl  0.31469172  0.12954265  0.62916226    -0.50300
C1694       C  0.26197297  0.13155780  0.69967355     0.42200
H1695       H  0.30121820  0.10671671  0.54536106     0.06400
N1696       N  0.28288318  0.19845108  0.63099154    -0.47000
C1697       C  0.36440057  0.62656916  0.05876238     0.42000
N1698       N  0.35710641  0.62800164  0.09580061     0.00900
C1699       C  0.25110401  0.59312290  0.14014328    -0.06900
H1700       H  0.25055933  0.66482419  0.07927900     0.06400
C1701       C  0.29459037  0.70851456  0.14067979    -0.07300
Co1702     Co  0.31128625  0.60481593  0.10287575     0.74200
N1703       N  0.27535977  0.64050975  0.09332337    -0.26500
Co1704     Co  0.27237398  0.64144557  0.12927950     0.74100
C1705       C  0.27587717  0.71342926  0.12437648     0.42100
N1706       N  0.34474784  0.67835167  0.14662003     0.00600
N1707       N  0.27863344  0.67670537  0.12929137     0.00700
N1708       N  0.27752424  0.56982806  0.12286499    -0.47300
H1709       H  0.33102896  0.60717796  0.05108477     0.06400
N1710       N  0.29009351  0.62612706  0.08350169     0.00900
N1711       N  0.27053764  0.64188863  0.16516209     0.00700
C1712       C  0.26000766  0.63697117  0.20021446     0.42300
N1713       N  0.36043070  0.66670796  0.13459680    -0.25900
C1714       C  0.33224120  0.56163322  0.12299357    -0.06800
N1715       N  0.37263520  0.63441616  0.07972217    -0.47000
N1716       N  0.25316168  0.63438267  0.17802798    -0.47300
C1717       C  0.35188512  0.55484729  0.13708911     0.42100
N1718       N  0.28278855  0.59194279  0.12025842     0.00900
N1719       N  0.35469772  0.63024029  0.17113044    -0.25900
N1720       N  0.33944915  0.61736397  0.08589223    -0.26400
N1721       N  0.33839526  0.64312606  0.18088280     0.00600
H1722       H  0.38154253  0.60869731  0.18655898     0.06500
H1723       H  0.29332456  0.65321750  0.21458354     0.06500
N1724       N  0.26760028  0.60591292  0.13001198    -0.26500
N1725       N  0.29509804  0.68536964  0.14245634    -0.26100
N1726       N  0.35111252  0.59239978  0.13357374     0.00900
C1727       C  0.27385219  0.64324403  0.05475712     0.42300
C1728       C  0.37583725  0.68272950  0.12671423    -0.07400
N1729       N  0.28789770  0.64978523  0.17766215    -0.26100
H1730       H  0.30558239  0.72043914  0.15002757     0.06500
N1731       N  0.28953074  0.62698046  0.06063044    -0.47300
H1732       H  0.39116771  0.67895613  0.11660315     0.06500
C1733       C  0.35618311  0.62896574  0.21055881     0.42200
C1734       C  0.34273669  0.61538475  0.06317768    -0.06900
Co1735     Co  0.35708142  0.62934283  0.13365524     0.73800
N1736       N  0.34848523  0.70076340  0.14794452    -0.47000
C1737       C  0.25809337  0.56920045  0.13575462     0.42400
N1738       N  0.36309351  0.57488513  0.14305768    -0.47000
Co1739     Co  0.31657773  0.66414910  0.16211870     0.73900
C1740       C  0.28276418  0.64755403  0.20017155    -0.07400
C1741       C  0.26421574  0.65222129  0.07654857    -0.06900
N1742       N  0.33305772  0.58457314  0.12195852    -0.26400
N1743       N  0.26648027  0.69287766  0.11844839    -0.47200
H1744       H  0.23619290  0.59976711  0.14936930     0.06400
C1745       C  0.36697573  0.62034887  0.18872295    -0.07300
Cl1746     Cl  0.31452947  0.63495422  0.13196283    -0.50300
C1747       C  0.36764597  0.70550068  0.13604703     0.42200
H1748       H  0.31969792  0.55123517  0.11384206     0.06400
N1749       N  0.33875194  0.64283515  0.20377314    -0.47000
C1750       C  0.38798721  0.13498792  0.05526199     0.42000
N1751       N  0.39127059  0.13376770  0.09284192     0.00900
C1752       C  0.49160816  0.17348792  0.14582966    -0.06900
H1753       H  0.50286364  0.10381412  0.08769830     0.06400
C1754       C  0.45468724  0.05440038  0.13911309    -0.07300
Co1755     Co  0.43530325  0.15825067  0.10465767     0.74200
N1756       N  0.47453853  0.12555632  0.09854118    -0.26500
Co1757     Co  0.47367509  0.12348787  0.13417788     0.74100
C1758       C  0.47533438  0.05163642  0.12491191     0.42100
N1759       N  0.40258668  0.08180027  0.14066568     0.00600
N1760       N  0.47016755  0.08772469  0.13205374     0.00700
N1761       N  0.46494848  0.19470966  0.12630429    -0.47300
H1762       H  0.42238248  0.15439266  0.05179686     0.06400
N1763       N  0.45985685  0.13889068  0.08721347     0.00900
N1764       N  0.47157600  0.12141159  0.16990192     0.00700
C1765       C  0.47919703  0.12365150  0.20614001     0.42300
N1766       N  0.38708724  0.09365529  0.12852381    -0.25900
C1767       C  0.41004033  0.20020184  0.12173666    -0.06800
N1768       N  0.37743043  0.12749178  0.07526343    -0.47000
N1769       N  0.48703564  0.12918287  0.18482924    -0.47300
C1770       C  0.38847543  0.20611779  0.13272443     0.42100
N1771       N  0.46074365  0.17234375  0.12482773     0.00900
N1772       N  0.38804242  0.12829373  0.16752623    -0.25900
N1773       N  0.40983039  0.14442285  0.08495694    -0.26400
N1774       N  0.40367828  0.11467103  0.17747543     0.00600
H1775       H  0.36130970  0.15004156  0.18287634     0.06500
H1776       H  0.44660022  0.10287007  0.21589534     0.06500
N1777       N  0.47600635  0.15943040  0.13592058    -0.26500
N1778       N  0.45273964  0.07729624  0.14233094    -0.26100
N1779       N  0.39199461  0.16853844  0.13138948     0.00900
C1780       C  0.48094395  0.12387930  0.06074080     0.42300
C1781       C  0.37409161  0.07770539  0.11700040    -0.07400
N1782       N  0.45420593  0.11071732  0.18003456    -0.26100
H1783       H  0.44327584  0.04133043  0.14612635     0.06500
N1784       N  0.46329062  0.13868442  0.06456079    -0.47300
H1785       H  0.36017189  0.08166095  0.10502995     0.06500
C1786       C  0.38536469  0.12796578  0.20683788     0.42200
C1787       C  0.40921132  0.14606587  0.06211704    -0.06900
Co1788     Co  0.38822026  0.13107921  0.13011912     0.73800
N1789       N  0.40113493  0.05921565  0.13835497    -0.47000
C1790       C  0.48404216  0.19691042  0.13931348     0.42400
N1791       N  0.37779296  0.18562152  0.13842104    -0.47000
Co1792     Co  0.42809610  0.09601338  0.16030689     0.73900
C1793       C  0.45762472  0.11090188  0.20305758    -0.07400
C1794       C  0.48861417  0.11525819  0.08332853    -0.06900
N1795       N  0.41072998  0.17720379  0.12156861    -0.26400
N1796       N  0.48431649  0.07298270  0.12161647    -0.47200
H1797       H  0.50687812  0.16796902  0.15526056     0.06400
C1798       C  0.37533566  0.13772426  0.18503597    -0.07300
Cl1799     Cl  0.43115871  0.12726774  0.13236266    -0.50300
C1800       C  0.38387307  0.05466232  0.12372918     0.42200
H1801       H  0.42274042  0.21144716  0.11381313     0.06400
N1802       N  0.40256129  0.11402681  0.20019566    -0.47000
C1803       C  0.30031522  0.23803651  0.37979016     0.42000
N1804       N  0.33592102  0.23095079  0.37231184     0.00900
C1805       C  0.38225344  0.12984931  0.32843137    -0.06900
H1806       H  0.32191026  0.12001666  0.40283316     0.06400
C1807       C  0.38572376  0.17186432  0.44956968    -0.07300
Co1808     Co  0.34253686  0.18637119  0.34771804     0.74200
N1809       N  0.33656434  0.14727520  0.38124630    -0.26500
Co1810     Co  0.37420759  0.14712248  0.38184644     0.74100
C1811       C  0.37328909  0.15132241  0.45673503     0.42100
N1812       N  0.38388181  0.22194285  0.42004425     0.00600
N1813       N  0.37498257  0.15269709  0.41898839     0.00700
N1814       N  0.35947788  0.15625305  0.31057485    -0.47300
H1815       H  0.28818146  0.20511571  0.36097066     0.06400
N1816       N  0.32609627  0.16302893  0.36816335     0.00900
N1817       N  0.41180201  0.14967936  0.38216745     0.00700
C1818       C  0.44936555  0.14612384  0.38096180     0.42300
N1819       N  0.37262490  0.23650244  0.40655244    -0.25900
C1820       C  0.36225955  0.21041559  0.30383024    -0.06800
N1821       N  0.32203444  0.24618026  0.38233109    -0.47000
N1822       N  0.42887539  0.13542209  0.37522082    -0.47300
C1823       C  0.37653201  0.23078402  0.29967710     0.42100
N1824       N  0.36023932  0.15964186  0.33306072     0.00900
N1825       N  0.40755602  0.23231890  0.37083109    -0.25900
N1826       N  0.32464092  0.21340954  0.36318631    -0.26400
N1827       N  0.41922169  0.21794221  0.38420993     0.00600
H1828       H  0.41792959  0.26004550  0.34812190     0.06500
H1829       H  0.45452330  0.18027503  0.40014884     0.06500
N1830       N  0.37310372  0.14442973  0.34455687    -0.26500
N1831       N  0.38573225  0.17139505  0.42657162    -0.26100
N1832       N  0.37107873  0.22715419  0.33608103     0.00900
C1833       C  0.29717600  0.14459822  0.38218463     0.42300
C1834       C  0.36416861  0.25374990  0.41934655    -0.07400
N1835       N  0.42055435  0.16838282  0.39190528    -0.26100
H1836       H  0.39447480  0.18482189  0.45982367     0.06500
N1837       N  0.30338738  0.16189044  0.36823595    -0.47300
H1838       H  0.35508381  0.26871974  0.41254460     0.06500
C1839       C  0.44547467  0.23786928  0.36718100     0.42200
C1840       C  0.30185053  0.21657996  0.36658397    -0.06900
Co1841     Co  0.37173730  0.23219290  0.37129315     0.73800
N1842       N  0.38390712  0.22840726  0.44200424    -0.47000
C1843       C  0.37275181  0.13796666  0.30578481     0.42400
N1844       N  0.38122767  0.24031861  0.32044085    -0.47000
Co1845     Co  0.40234972  0.19488108  0.40588667     0.73900
C1846       C  0.44343675  0.16747470  0.39220324    -0.07400
C1847       C  0.31935221  0.13443804  0.39107240    -0.06900
N1848       N  0.35985070  0.20965615  0.32691249    -0.26400
N1849       N  0.36717317  0.13993389  0.43676579    -0.47200
H1850       H  0.39347361  0.11520716  0.33204170     0.06400
C1851       C  0.42258987  0.24580205  0.35944173    -0.07300
Cl1852     Cl  0.37267462  0.18974649  0.37677753    -0.50300
C1853       C  0.37157070  0.24825164  0.44294074     0.42200
H1854       H  0.35508323  0.19813237  0.29168809     0.06400
N1855       N  0.44186089  0.22092036  0.38286118    -0.47000
C1856       C  0.54812222  0.85594697  0.63361959     0.42000
N1857       N  0.58575092  0.85343630  0.63288549     0.00900
C1858       C  0.64371626  0.76052167  0.58301528    -0.06900
H1859       H  0.59276006  0.73720710  0.65350872     0.06400
C1860       C  0.64207025  0.78815781  0.70416323    -0.07300
Co1861     Co  0.59810784  0.81112740  0.60561107     0.74200
N1862       N  0.59913305  0.76914905  0.63504920    -0.26500
Co1863     Co  0.63461392  0.77382015  0.63421555     0.74100
C1864       C  0.63064125  0.76567850  0.70572947     0.42100
N1865       N  0.63765200  0.84263557  0.68069623     0.00600
N1866       N  0.63538333  0.77433917  0.67001831     0.00700
N1867       N  0.61868267  0.78480377  0.56484847    -0.47300
H1868       H  0.54427188  0.82117126  0.61492573     0.06400
N1869       N  0.58531943  0.78403592  0.62453237     0.00900
N1870       N  0.66997004  0.77993806  0.63317011     0.00700
C1871       C  0.70619179  0.77870765  0.62527519     0.42300
N1872       N  0.62427177  0.85821355  0.67036218    -0.25900
C1873       C  0.60908383  0.83888699  0.56413220    -0.06800
N1874       N  0.56819967  0.86720895  0.63943160    -0.47000
N1875       N  0.68568903  0.76820249  0.62132186    -0.47300
C1876       C  0.62054366  0.85993345  0.55756184     0.42100
N1877       N  0.61887796  0.78818327  0.58752339     0.00900
N1878       N  0.66005953  0.86202310  0.63287770    -0.25900
N1879       N  0.57788391  0.83435045  0.62307391    -0.26400
N1880       N  0.67204695  0.84703138  0.64551428     0.00600
H1881       H  0.67175004  0.89055402  0.61111888     0.06500
H1882       H  0.71402506  0.80951224  0.64915528     0.06500
N1883       N  0.63312925  0.77408250  0.59850461    -0.26500
N1884       N  0.64417029  0.79205307  0.68132270    -0.26100
N1885       N  0.62130562  0.85635298  0.59518781     0.00900
C1886       C  0.56255124  0.75850076  0.63792294     0.42300
C1887       C  0.61435913  0.87088620  0.68756870    -0.07400
N1888       N  0.67898925  0.79723172  0.64490718    -0.26100
H1889       H  0.64761106  0.79971933  0.71780648     0.06500
N1890       N  0.56330213  0.77829444  0.62573592    -0.47300
H1891       H  0.60279017  0.88534984  0.68463844     0.06500
C1892       C  0.69891374  0.86815088  0.63107858     0.42200
C1893       C  0.55487125  0.83428866  0.62302654    -0.06900
Co1894     Co  0.62283727  0.85882705  0.63277178     0.73800
N1895       N  0.63771537  0.84386956  0.70346755    -0.47000
C1896       C  0.63414715  0.76779144  0.56072094     0.42400
N1897       N  0.62771540  0.87041827  0.57776600    -0.47000
Co1898     Co  0.65828714  0.81983132  0.66339657     0.73900
C1899       C  0.70192973  0.79749043  0.64150048    -0.07400
C1900       C  0.58625926  0.75224621  0.64429369    -0.06900
N1901       N  0.61085193  0.83783206  0.58691952    -0.26400
N1902       N  0.62697925  0.75820351  0.68392189    -0.47200
H1903       H  0.65555977  0.74648405  0.58702527     0.06400
C1904       C  0.67581130  0.87642376  0.62281818    -0.07300
Cl1905     Cl  0.62840683  0.81607797  0.63401838    -0.50300
C1906       C  0.62347464  0.86103225  0.70984350     0.42200
H1907       H  0.60034379  0.82613691  0.55359791     0.06400
N1908       N  0.69456067  0.85017756  0.64492736    -0.47000
C1909       C  0.13602900  0.30716520  0.37794528     0.42000
N1910       N  0.14253211  0.34420097  0.38015872     0.00900
C1911       C  0.24737252  0.38977446  0.34283945    -0.06900
H1912       H  0.25319680  0.33205897  0.41216264     0.06400
C1913       C  0.20571946  0.38849592  0.45972819    -0.07300
Co1914     Co  0.18787471  0.35269061  0.35634770     0.74200
N1915       N  0.22545386  0.34422949  0.39042895    -0.26500
Co1916     Co  0.22691372  0.37997637  0.39181707     0.74100
C1917       C  0.22526275  0.37303318  0.46383317     0.42100
N1918       N  0.15526084  0.39339007  0.43108155     0.00600
N1919       N  0.22174102  0.37893108  0.42731124     0.00700
N1920       N  0.22059172  0.37162415  0.32071927    -0.47300
H1921       H  0.17005552  0.30052422  0.35895698     0.06400
N1922       N  0.21063914  0.33369243  0.37672513     0.00900
N1923       N  0.22741617  0.41587584  0.39284621     0.00700
C1924       C  0.23756088  0.45138609  0.39109522     0.42300
N1925       N  0.13927779  0.38161300  0.41973681    -0.25900
C1926       C  0.16574136  0.37480085  0.31394094    -0.06800
N1927       N  0.12706652  0.32782752  0.38575571    -0.47000
N1928       N  0.24437860  0.42960021  0.38591658    -0.47300
C1929       C  0.14556654  0.38858983  0.30864532     0.42100
N1930       N  0.21526838  0.37072020  0.34289104     0.00900
N1931       N  0.14360085  0.41910829  0.38389637    -0.25900
N1932       N  0.16059069  0.33486688  0.36959584    -0.26400
N1933       N  0.15990322  0.42851718  0.39689930     0.00600
H1934       H  0.11755763  0.43516553  0.36184294     0.06500
H1935       H  0.20484005  0.46357477  0.41028051     0.06500
N1936       N  0.23064478  0.38092647  0.35623796    -0.26500
N1937       N  0.20481909  0.39093648  0.43672675    -0.26100
N1938       N  0.14681902  0.38264157  0.34558013     0.00900
C1939       C  0.23073581  0.30607978  0.39162637     0.42300
C1940       C  0.12478274  0.37277912  0.43618969    -0.07400
N1941       N  0.21023241  0.42734974  0.40252622    -0.26100
H1942       H  0.19467527  0.39725353  0.47206985     0.06500
N1943       N  0.21345014  0.31093306  0.37660358    -0.47300
H1944       H  0.10973808  0.36217162  0.43282086     0.06500
C1945       C  0.14308656  0.45848390  0.38266547     0.42200
C1946       C  0.15797407  0.31213857  0.36740327    -0.06900
Co1947     Co  0.14173161  0.38176211  0.38237394     0.73800
N1948       N  0.15278297  0.39342272  0.45364446    -0.47000
C1949       C  0.24049053  0.38343239  0.31934189     0.42400
N1950       N  0.13416668  0.39270896  0.32894808    -0.47000
Co1951     Co  0.18241183  0.41020509  0.41679094     0.73900
C1952       C  0.21520313  0.44997143  0.40254686    -0.07400
C1953       C  0.23877621  0.32830157  0.40079225    -0.06900
N1954       N  0.16511987  0.37193509  0.33685020    -0.26400
N1955       N  0.23464969  0.36817739  0.44293190    -0.47200
H1956       H  0.26281260  0.39848636  0.34886878     0.06400
C1957       C  0.13178269  0.43698777  0.37391477    -0.07300
Cl1958     Cl  0.18457375  0.38110886  0.38682595    -0.50300
C1959       C  0.13427838  0.38087216  0.45890370     0.42200
H1960       H  0.17833395  0.36727387  0.30226409     0.06400
N1961       N  0.16004647  0.45126438  0.39668197    -0.47000
C1962       C  0.54429235  0.62883551  0.78658831     0.42000
N1963       N  0.58083500  0.62437180  0.79083404     0.00900
C1964       C  0.63635841  0.57498255  0.88499457    -0.06900
H1965       H  0.57430948  0.65119685  0.89993128     0.06400
C1966       C  0.63535067  0.69821844  0.84906070    -0.07300
Co1967     Co  0.59232576  0.59653800  0.83267949     0.74200
N1968       N  0.58814584  0.62830593  0.87328642    -0.26500
Co1969     Co  0.62577290  0.62935002  0.87098167     0.74100
C1970       C  0.62485621  0.70434308  0.87085979     0.42100
N1971       N  0.62866004  0.67242560  0.79858513     0.00600
N1972       N  0.62578009  0.66675155  0.86748367     0.00700
N1973       N  0.61375978  0.55793576  0.85820577    -0.47300
H1974       H  0.53629650  0.60699272  0.81891251     0.06400
N1975       N  0.57714240  0.61453516  0.85869742     0.00900
N1976       N  0.66310755  0.63043759  0.86587849     0.00700
C1977       C  0.70085563  0.63030725  0.86790187     0.42300
N1978       N  0.61610057  0.66026470  0.78404794    -0.25900
C1979       C  0.60813036  0.55517301  0.80283662    -0.06800
N1980       N  0.56502795  0.63352071  0.77695101    -0.47000
N1981       N  0.68098767  0.62362414  0.87918135    -0.47300
C1982       C  0.61879265  0.55256926  0.78017554     0.42100
N1983       N  0.61294159  0.58064231  0.85652890     0.00900
N1984       N  0.65210005  0.62473474  0.78227484    -0.25900
N1985       N  0.57168503  0.61344141  0.80864729    -0.26400
N1986       N  0.66477875  0.63693473  0.79672511     0.00600
H1987       H  0.66049116  0.60505469  0.75167269     0.06500
H1988       H  0.70402492  0.64982750  0.83352711     0.06500
N1989       N  0.62584507  0.59169554  0.87188780    -0.26500
N1990       N  0.63521678  0.67528954  0.84849208    -0.26100
N1991       N  0.61663933  0.58861358  0.78818636     0.00900
C1992       C  0.54882705  0.62872388  0.87812039     0.42300
C1993       C  0.60607583  0.67479010  0.76885062    -0.07400
N1994       N  0.67062921  0.64088686  0.84693598    -0.26100
H1995       H  0.64257150  0.70908057  0.83563643     0.06500
N1996       N  0.55451793  0.61415134  0.86119634    -0.47300
H1997       H  0.59598246  0.66949024  0.75398723     0.06500
C1998       C  0.68939776  0.62329179  0.77256364     0.42200
C1999       C  0.54858063  0.61508053  0.80731790    -0.06900
Co2000     Co  0.61633557  0.62440737  0.78578332     0.73800
N2001       N  0.62811053  0.69486469  0.79404662    -0.47000
C2002       C  0.62805270  0.55235298  0.87555970     0.42400
N2003       N  0.62357933  0.57395039  0.77203174    -0.47000
Co2004     Co  0.64985985  0.65639291  0.82270789     0.73900
C2005       C  0.69364213  0.64162094  0.84677687    -0.07400
C2006       C  0.57132734  0.63862996  0.88635977    -0.06900
N2007       N  0.60746390  0.57808879  0.80621191    -0.26400
N2008       N  0.61911850  0.68390250  0.88167928    -0.47200
H2009       H  0.64835855  0.57818024  0.89903917     0.06400
C2010       C  0.66610835  0.61523122  0.76636640    -0.07300
Cl2011     Cl  0.62114274  0.62666076  0.82821977    -0.50300
C2012       C  0.61387929  0.69795579  0.77572522     0.42200
H2013       H  0.60105003  0.54217780  0.81433382     0.06400
N2014       N  0.68700737  0.63677253  0.79139814    -0.47000
C2015       C  0.29580004  0.38343503  0.61717807     0.42000
N2016       N  0.33311163  0.38375330  0.61253515     0.00900
C2017       C  0.38552303  0.43652184  0.51850215    -0.06900
H2018       H  0.32593543  0.36748145  0.49943493     0.06400
C2019       C  0.38105087  0.31498731  0.53761573    -0.07300
Co2020     Co  0.34320633  0.41446166  0.57187888     0.74200
N2021       N  0.33721453  0.38711868  0.52909828    -0.26500
Co2022     Co  0.37292746  0.38553161  0.52936336     0.74100
C2023       C  0.36773929  0.31506916  0.51607493     0.42100
N2024       N  0.38119779  0.33435064  0.59413727     0.00600
N2025       N  0.37168301  0.34992086  0.52794970     0.00700
N2026       N  0.36566654  0.45507366  0.54672455    -0.47300
H2027       H  0.28991147  0.40769758  0.58640013     0.06400
N2028       N  0.32591620  0.39829322  0.54543989     0.00900
N2029       N  0.40861913  0.38363801  0.53075533     0.00700
C2030       C  0.44464430  0.38654363  0.52255832     0.42300
N2031       N  0.36996161  0.34386156  0.61174257    -0.25900
C2032       C  0.36019352  0.45265225  0.60125732    -0.06800
N2033       N  0.31629316  0.37498768  0.62588118    -0.47000
N2034       N  0.42316569  0.39293330  0.51583541    -0.47300
C2035       C  0.37317864  0.45621174  0.62201981     0.42100
N2036       N  0.36304183  0.43233665  0.54802726     0.00900
N2037       N  0.40784871  0.37888903  0.61438894    -0.25900
N2038       N  0.32425414  0.39682987  0.59585496    -0.26400
N2039       N  0.41780316  0.36761840  0.59708207     0.00600
H2040       H  0.42271710  0.39462750  0.64501768     0.06500
H2041       H  0.45495853  0.36207072  0.55259725     0.06500
N2042       N  0.37435684  0.42116471  0.53170551    -0.26500
N2043       N  0.38238771  0.33727901  0.54364423    -0.26100
N2044       N  0.37110197  0.41923335  0.61532966     0.00900
C2045       C  0.29945821  0.38425249  0.52413646     0.42300
C2046       C  0.36086880  0.32595944  0.62419201    -0.07400
N2047       N  0.41914081  0.37097899  0.54658542    -0.26100
H2048       H  0.38944433  0.30081747  0.54664891     0.06500
N2049       N  0.30319185  0.39715745  0.54309853    -0.47300
H2050       H  0.35080874  0.32764352  0.63992037     0.06500
C2051       C  0.44707121  0.37691756  0.61800404     0.42200
C2052       C  0.30133520  0.39781086  0.59758698    -0.06900
Co2053     Co  0.37052958  0.38138063  0.61485947     0.73800
N2054       N  0.38030037  0.31156003  0.59354402    -0.47000
C2055       C  0.37991756  0.45898193  0.52867627     0.42400
N2056       N  0.37980336  0.43479405  0.63026690    -0.47000
Co2057     Co  0.40019929  0.35247160  0.57050797     0.73900
C2058       C  0.44202417  0.37159670  0.54284345    -0.07400
C2059       C  0.32187712  0.37762858  0.51462177    -0.06900
N2060       N  0.36001915  0.42993583  0.59830589    -0.26400
N2061       N  0.36298369  0.33739255  0.51096117    -0.47200
H2062       H  0.39563184  0.43245470  0.50329680     0.06400
C2063       C  0.42519874  0.38562101  0.62878529    -0.07300
Cl2064     Cl  0.37173124  0.38344813  0.57204456    -0.50300
C2065       C  0.36764147  0.30444943  0.61151907     0.42200
H2066       H  0.35189658  0.46528350  0.59006926     0.06400
N2067       N  0.44051108  0.36604006  0.59867778    -0.47000
C2068       C  0.48596205  0.69810067  0.64910079     0.42000
N2069       N  0.47704167  0.66262845  0.64337664     0.00900
C2070       C  0.38219973  0.62276756  0.58171297    -0.06900
H2071       H  0.36291773  0.68158672  0.65220764     0.06400
C2072       C  0.40442163  0.61419441  0.70811946    -0.07300
Co2073     Co  0.43753599  0.65757064  0.61098671     0.74200
N2074       N  0.39349835  0.66590249  0.63689855    -0.26500
Co2075     Co  0.39181374  0.62849188  0.63757215     0.74100
C2076       C  0.38489579  0.62890671  0.71240647     0.42100
N2077       N  0.45758695  0.61549654  0.68886305     0.00600
N2078       N  0.39120824  0.62746274  0.67530958     0.00700
N2079       N  0.41352013  0.64177396  0.56848034    -0.47300
H2080       H  0.45635775  0.71080077  0.62528981     0.06400
N2081       N  0.41159845  0.67553521  0.62676236     0.00900
N2082       N  0.39276978  0.59074487  0.63820501     0.00700
C2083       C  0.38665204  0.55372838  0.63706601     0.42300
N2084       N  0.47436052  0.62691560  0.67861652    -0.25900
C2085       C  0.46964157  0.63872395  0.57255978    -0.06800
N2086       N  0.49209465  0.67607320  0.65400867    -0.47000
N2087       N  0.37873807  0.57472135  0.62900706    -0.47300
C2088       C  0.49092596  0.62502037  0.57196829     0.42100
N2089       N  0.41328702  0.64079072  0.59131459     0.00900
N2090       N  0.47643011  0.59137155  0.64258732    -0.25900
N2091       N  0.46166620  0.67434366  0.63126772    -0.26400
N2092       N  0.45954621  0.58011456  0.65291180     0.00600
H2093       H  0.50688794  0.58004045  0.62412077     0.06500
H2094       H  0.41703841  0.54570401  0.66092506     0.06500
N2095       N  0.39520884  0.62980935  0.60010422    -0.26500
N2096       N  0.40742947  0.61480174  0.68547431    -0.26100
N2097       N  0.47931192  0.62783294  0.60712050     0.00900
C2098       C  0.39129044  0.70535009  0.63602168     0.42300
C2099       C  0.48732306  0.63711508  0.69485483    -0.07400
N2100       N  0.40910832  0.58071690  0.65089143    -0.26100
H2101       H  0.41504302  0.60450503  0.72023025     0.06500
N2102       N  0.41087652  0.69831136  0.62593084    -0.47300
H2103       H  0.50281693  0.64713371  0.69178116     0.06500
C2104       C  0.48116307  0.55362134  0.63922261     0.42200
C2105       C  0.46570033  0.69696034  0.63391586    -0.06900
Co2106     Co  0.47732645  0.62709951  0.64293901     0.73800
N2107       N  0.45862523  0.61671843  0.71173465    -0.47000
C2108       C  0.39467529  0.63094276  0.56051010     0.42400
N2109       N  0.49604682  0.61919533  0.59408981    -0.47000
Co2110     Co  0.43342601  0.59763883  0.66958897     0.73900
C2111       C  0.40646751  0.55790696  0.65128512    -0.07400
C2112       C  0.37940281  0.68363584  0.64357374    -0.06900
N2113       N  0.46386957  0.63949267  0.59498769    -0.26400
N2114       N  0.37702872  0.63676509  0.69126870    -0.47200
H2115       H  0.36603469  0.61344798  0.58300183     0.06400
C2116       C  0.49106837  0.57601587  0.63327634    -0.07300
Cl2117     Cl  0.43459869  0.62761001  0.64013440    -0.50300
C2118       C  0.47648097  0.63079861  0.71675597     0.42200
H2119       H  0.46059680  0.64759482  0.55868383     0.06400
N2120       N  0.46179029  0.55736552  0.65156381    -0.47000
C2121       C  0.69898791  0.39411828  0.63265903     0.42000
N2122       N  0.66153140  0.39808122  0.63421568     0.00900
C2123       C  0.60654385  0.49434281  0.58739899    -0.06900
H2124       H  0.65507688  0.51431175  0.65924575     0.06400
C2125       C  0.60599098  0.46203240  0.70786099    -0.07300
Co2126     Co  0.65053616  0.44200603  0.60902891     0.74200
N2127       N  0.65023412  0.48268698  0.64025261    -0.26500
Co2128     Co  0.61490757  0.47889731  0.63867810     0.74100
C2129       C  0.61853653  0.48370360  0.71042674     0.42100
N2130       N  0.60946633  0.40876073  0.68256291     0.00600
N2131       N  0.61404295  0.47679223  0.67438760     0.00700
N2132       N  0.63085719  0.46957936  0.56928849    -0.47300
H2133       H  0.70347244  0.43056009  0.61765304     0.06400
N2134       N  0.66441675  0.46863683  0.62922257     0.00900
N2135       N  0.57958196  0.47408946  0.63719555     0.00700
C2136       C  0.54324313  0.47922228  0.63200157     0.42300
N2137       N  0.62283883  0.39328586  0.67219630    -0.25900
C2138       C  0.63706356  0.41546483  0.56607445    -0.06800
N2139       N  0.67881437  0.38316685  0.63878940    -0.47000
N2140       N  0.56431533  0.48811978  0.62741578    -0.47300
C2141       C  0.62463387  0.39479604  0.55954831     0.42100
N2142       N  0.63040470  0.46585897  0.59182193     0.00900
N2143       N  0.58651309  0.39176024  0.63436395    -0.25900
N2144       N  0.66983017  0.41760628  0.62561859    -0.26400
N2145       N  0.57525382  0.40691444  0.64728636     0.00600
H2146       H  0.57328276  0.36438861  0.61222534     0.06500
H2147       H  0.53419817  0.44774194  0.65468049     0.06500
N2148       N  0.61652434  0.48012511  0.60289753    -0.26500
N2149       N  0.60445374  0.45901921  0.68489732    -0.26100
N2150       N  0.62554614  0.39762244  0.59719668     0.00900
C2151       C  0.68628901  0.49509817  0.64354918     0.42300
C2152       C  0.63267110  0.38048596  0.68954563    -0.07400
N2153       N  0.56984588  0.45679415  0.64833524    -0.26100
H2154       H  0.59911412  0.45061494  0.72104007     0.06500
N2155       N  0.68623823  0.47576961  0.63021486    -0.47300
H2156       H  0.64451416  0.36623807  0.68673429     0.06500
C2157       C  0.54697560  0.38742234  0.63288856     0.42200
C2158       C  0.69277580  0.41701094  0.62483496    -0.06900
Co2159     Co  0.62413904  0.39383674  0.63444735     0.73800
N2160       N  0.60930347  0.40737271  0.70527715    -0.47000
C2161       C  0.61619579  0.48717417  0.56500403     0.42400
N2162       N  0.61799066  0.38421415  0.57981028    -0.47000
Co2163     Co  0.58971854  0.43271033  0.66591892     0.73900
C2164       C  0.54682299  0.45874377  0.64638392    -0.07400
C2165       C  0.66235983  0.49962920  0.65010763    -0.06900
N2166       N  0.63647995  0.41602555  0.58909941    -0.26400
N2167       N  0.62255344  0.49213859  0.68902365    -0.47200
H2168       H  0.59504898  0.50861847  0.59149231     0.06400
C2169       C  0.56984530  0.37838213  0.62418170    -0.07300
Cl2170     Cl  0.61991448  0.43669846  0.63701771    -0.50300
C2171       C  0.62339763  0.39021286  0.71187560     0.42200
H2172       H  0.64548232  0.42819990  0.55523816     0.06400
N2173       N  0.55268510  0.40473740  0.64697786    -0.47000
C2174       C  0.30575243  0.52246209  0.39473677     0.42000
N2175       N  0.34125784  0.53241433  0.39553093     0.00900
C2176       C  0.38870953  0.63356593  0.43760941    -0.06900
H2177       H  0.32646438  0.64491602  0.36653196     0.06400
C2178       C  0.38582263  0.59307509  0.31500947    -0.07300
Co2179     Co  0.34866919  0.57715811  0.41952128     0.74200
N2180       N  0.34087677  0.61663679  0.38673678    -0.26500
Co2181     Co  0.37816039  0.61638026  0.38407025     0.74100
C2182       C  0.37304548  0.61383073  0.30933370     0.42100
N2183       N  0.38528637  0.54222707  0.34411280     0.00600
N2184       N  0.37664764  0.61132905  0.34678257     0.00700
N2185       N  0.36686163  0.60712439  0.45612598    -0.47300
H2186       H  0.29418885  0.55567709  0.41375946     0.06400
N2187       N  0.33074937  0.60098601  0.40006763     0.00900
N2188       N  0.41548415  0.61366343  0.38143675     0.00700
C2189       C  0.45296509  0.61768777  0.38041098     0.42300
N2190       N  0.37490305  0.52753822  0.35808286    -0.25900
C2191       C  0.37096631  0.55231341  0.46202987    -0.06800
N2192       N  0.32726528  0.51564209  0.38890972    -0.47000
N2193       N  0.43269385  0.62784180  0.38778733    -0.47300
C2194       C  0.38594038  0.53209793  0.46530225     0.42100
N2195       N  0.36683513  0.60380556  0.43357667     0.00900
N2196       N  0.41265044  0.53082792  0.39149384    -0.25900
N2197       N  0.33026434  0.54981793  0.40543154    -0.26400
N2198       N  0.42356776  0.54494854  0.37736784     0.00600
H2199       H  0.42389404  0.50230874  0.41285233     0.06500
H2200       H  0.45724989  0.58308103  0.36125967     0.06500
N2201       N  0.37911814  0.61902168  0.42164210    -0.26500
N2202       N  0.38707537  0.59282254  0.33807843    -0.26100
N2203       N  0.37883811  0.53643293  0.42907633     0.00900
C2204       C  0.30178614  0.62146343  0.38824452     0.42300
C2205       C  0.36474067  0.51110710  0.34536666    -0.07400
N2206       N  0.42385526  0.59519482  0.37083259    -0.26100
H2207       H  0.39360872  0.58044862  0.30352812     0.06500
N2208       N  0.30809714  0.60334052  0.40142443    -0.47300
H2209       H  0.35595150  0.49611680  0.35231003     0.06500
C2210       C  0.45048909  0.52319269  0.39153241     0.42200
C2211       C  0.30752834  0.54508252  0.40587824    -0.06900
Co2212     Co  0.37690951  0.53137985  0.39367385     0.73800
N2213       N  0.38305671  0.53664956  0.32200833    -0.47000
C2214       C  0.38011323  0.62540389  0.46067298     0.42400
N2215       N  0.38968202  0.52295286  0.44412069    -0.47000
Co2216     Co  0.40499879  0.56885028  0.35742638     0.73900
C2217       C  0.44666071  0.59624804  0.36932991    -0.07400
C2218       C  0.32376038  0.63043713  0.37811758    -0.06900
N2219       N  0.36769231  0.55366565  0.43905416    -0.26400
N2220       N  0.36778692  0.62462816  0.32983300    -0.47200
H2221       H  0.39955699  0.64831351  0.43369558     0.06400
C2222       C  0.42810430  0.51653566  0.40138523    -0.07300
Cl2223     Cl  0.37715914  0.57363258  0.38862489    -0.50300
C2224       C  0.36978677  0.51746550  0.32133961     0.42200
H2225       H  0.36346149  0.56376574  0.47483966     0.06400
N2226       N  0.44615154  0.54074042  0.37656390    -0.47000
C2227       C  0.54939746  0.12522053  0.99156960     0.42000
N2228       N  0.58529816  0.13192109  0.98542524     0.00900
C2229       C  0.63288186  0.18000415  0.88722144    -0.06900
H2230       H  0.57366250  0.10534111  0.87296481     0.06400
C2231       C  0.63707709  0.05789212  0.92715602    -0.07300
Co2232     Co  0.59188202  0.15810475  0.94167647     0.74200
N2233       N  0.58707874  0.12570084  0.90166774    -0.26500
Co2234     Co  0.62469220  0.12560625  0.90232455     0.74100
C2235       C  0.62310705  0.05093767  0.90770582     0.42100
N2236       N  0.63608384  0.08616359  0.97655274     0.00600
N2237       N  0.62596322  0.08847192  0.90789961     0.00700
N2238       N  0.60911816  0.19665175  0.91337276    -0.47300
H2239       H  0.53817432  0.14485639  0.95874489     0.06400
N2240       N  0.57600622  0.13800760  0.91750419     0.00900
N2241       N  0.66230625  0.12539708  0.90461842     0.00700
C2242       C  0.69979138  0.12463078  0.89950039     0.42300
N2243       N  0.62348433  0.09818256  0.99124404    -0.25900
C2244       C  0.60842801  0.20174948  0.96814596    -0.06800
N2245       N  0.57093884  0.12212991  0.00033837    -0.47000
N2246       N  0.67900728  0.13054956  0.88928689    -0.47300
C2247       C  0.62236883  0.20582392  0.98877057     0.42100
N2248       N  0.60967004  0.17398668  0.91568627     0.00900
N2249       N  0.65722992  0.13581865  0.98822623    -0.25900
N2250       N  0.57432871  0.14148467  0.96777632    -0.26400
N2251       N  0.66958685  0.12349616  0.97354349     0.00600
H2252       H  0.66661772  0.15966376  0.01538944     0.06500
H2253       H  0.70548548  0.10812810  0.93520968     0.06500
N2254       N  0.62312837  0.16315158  0.90055684    -0.26500
N2255       N  0.63749503  0.08090128  0.92628592    -0.26100
N2256       N  0.61948451  0.16933957  0.98346226     0.00900
C2257       C  0.54776146  0.12453548  0.89736464     0.42300
C2258       C  0.61477347  0.08361039  0.00712011    -0.07400
N2259       N  0.67146957  0.11653256  0.92363392    -0.26100
H2260       H  0.64586064  0.04728236  0.93992638     0.06500
N2261       N  0.55329478  0.13776899  0.91548596    -0.47300
H2262       H  0.60413868  0.08845533  0.02178294     0.06500
C2263       C  0.69495787  0.14201627  0.99322221     0.42200
C2264       C  0.55153484  0.13845750  0.97029217    -0.06900
Co2265     Co  0.62126186  0.13386003  0.98769566     0.73800
N2266       N  0.63688781  0.06384327  0.98146254    -0.47000
C2267       C  0.62312872  0.20236376  0.89595872     0.42400
N2268       N  0.62817775  0.18498633  0.99765711    -0.47000
Co2269     Co  0.65374142  0.10175534  0.94998814     0.73900
C2270       C  0.69433266  0.11561537  0.92211728    -0.07400
C2271       C  0.57041733  0.11631797  0.88780194    -0.06900
N2272       N  0.60798756  0.17863781  0.96605456    -0.26400
N2273       N  0.61706865  0.07072856  0.89590020    -0.47200
H2274       H  0.64494158  0.17709985  0.87316489     0.06400
C2275       C  0.67171909  0.14820272  0.00145881    -0.07300
Cl2276     Cl  0.62288570  0.12978681  0.94507228    -0.50300
C2277       C  0.62385935  0.06084400  0.00044652     0.42200
H2278       H  0.59975699  0.21408622  0.95691776     0.06400
N2279       N  0.69213319  0.12641089  0.97615063    -0.47000
C2280       C  0.19928652  0.89265298  0.63187775     0.42000
N2281       N  0.16232061  0.89944956  0.63095682     0.00900
C2282       C  0.11892112  0.00267779  0.58580935    -0.06900
H2283       H  0.17323351  0.01274305  0.65607266     0.06400
C2284       C  0.11756265  0.96644736  0.70466167    -0.07300
Co2285     Co  0.15569644  0.94372640  0.60443166     0.74200
N2286       N  0.16201899  0.98322091  0.63626858    -0.26500
Co2287     Co  0.12623061  0.98447936  0.63583966     0.74100
C2288       C  0.13361061  0.98563716  0.70750972     0.42100
N2289       N  0.11195603  0.91474107  0.67929802     0.00600
N2290       N  0.12599019  0.98150379  0.67146364     0.00700
N2291       N  0.13928221  0.97577868  0.56561656    -0.47300
H2292       H  0.20761741  0.92544556  0.61156700     0.06400
N2293       N  0.17330626  0.96729164  0.62447798     0.00900
N2294       N  0.09026755  0.98467425  0.63523520     0.00700
C2295       C  0.05452763  0.99296048  0.62928480     0.42300
N2296       N  0.12370853  0.89811884  0.66878893    -0.25900
C2297       C  0.13866367  0.91939713  0.56244080    -0.06800
N2298       N  0.17818207  0.88433473  0.63887413    -0.47000
N2299       N  0.07643508  0.00020383  0.62537475    -0.47300
C2300       C  0.12488148  0.89967284  0.55610574     0.42100
N2301       N  0.13863957  0.97083780  0.58803065     0.00900
N2302       N  0.08706744  0.90062644  0.63215482    -0.25900
N2303       N  0.17246186  0.91691406  0.62016097    -0.26400
N2304       N  0.07742673  0.91765698  0.64410664     0.00600
H2305       H  0.07110829  0.87133786  0.61471264     0.06500
H2306       H  0.04235131  0.96139070  0.65011636     0.06500
N2307       N  0.12715366  0.98639465  0.60016119    -0.26500
N2308       N  0.11421555  0.96499237  0.68175422    -0.26100
N2309       N  0.12592072  0.90257379  0.59373509     0.00900
C2310       C  0.19986899  0.98823311  0.63914037     0.42300
C2311       C  0.13211040  0.88403663  0.68587661    -0.07400
N2312       N  0.07873731  0.96805640  0.64568695    -0.26100
H2313       H  0.10985000  0.95539388  0.71762847     0.06500
N2314       N  0.19602529  0.96980013  0.62544808    -0.47300
H2315       H  0.14267345  0.86883342  0.68291103     0.06500
C2316       C  0.04753556  0.89820252  0.63366176     0.42200
C2317       C  0.19527659  0.91395774  0.61971993    -0.06900
Co2318     Co  0.12472253  0.89886090  0.63128787     0.73800
N2319       N  0.11141818  0.91284212  0.70198313    -0.47000
C2320       C  0.12698775  0.99550748  0.56300426     0.42400
N2321       N  0.11743891  0.88963497  0.57640503    -0.47000
Co2322     Co  0.09545921  0.94137984  0.66277471     0.73900
C2323       C  0.05604634  0.97191027  0.64308130    -0.07400
C2324       C  0.17736809  0.99732212  0.64625901    -0.06900
N2325       N  0.13811120  0.92004592  0.58535561    -0.26400
N2326       N  0.13765273  0.99445356  0.68623421    -0.47200
H2327       H  0.10963539  0.01818583  0.59088553     0.06400
C2328       C  0.06922746  0.88721587  0.62449563    -0.07300
Cl2329     Cl  0.12545978  0.94170004  0.63344734    -0.50300
C2330       C  0.12366818  0.89417005  0.70826208     0.42200
H2331       H  0.14841084  0.93119904  0.55165428     0.06400
N2332       N  0.05469503  0.91674341  0.64531437    -0.47000
C2333       C  0.12627998  0.70500546  0.90078428     0.42000
N2334       N  0.12460465  0.66782490  0.90544955     0.00900
C2335       C  0.08863239  0.62572526  0.01248081    -0.06900
H2336       H  0.15899051  0.67778192  0.01479772     0.06400
C2337       C  0.20323685  0.61949649  0.96666272    -0.07300
Co2338     Co  0.10067960  0.65962700  0.95078204     0.74200
N2339       N  0.13618634  0.66585720  0.98768286    -0.26500
Co2340     Co  0.13573666  0.62998837  0.98862374     0.74100
C2341       C  0.20740009  0.63545100  0.98582005     0.42100
N2342       N  0.17358310  0.61629637  0.91611203     0.00600
N2343       N  0.17101189  0.62897890  0.98320552     0.00700
N2344       N  0.06558174  0.64515306  0.98709142    -0.47300
H2345       H  0.10673382  0.71196739  0.93431652     0.06400
N2346       N  0.12267059  0.67687648  0.97290061     0.00900
N2347       N  0.13425091  0.59415108  0.98779657     0.00700
C2348       C  0.12526713  0.55884488  0.99415322     0.42300
N2349       N  0.16209595  0.62950162  0.90121527    -0.25900
C2350       C  0.05679884  0.64288996  0.92743681    -0.06800
N2351       N  0.13240016  0.68424093  0.89097637    -0.47000
N2352       N  0.12364967  0.58050177  0.00282592    -0.47300
C2353       C  0.05047733  0.63117053  0.90620378     0.42100
N2354       N  0.08683069  0.64244997  0.97893934     0.00900
N2355       N  0.12534618  0.59305013  0.90403766    -0.25900
N2356       N  0.11435472  0.67720236  0.92360004    -0.26400
N2357       N  0.13835433  0.58243152  0.91966971     0.00600
H2358       H  0.10426027  0.57928345  0.87626917     0.06500
H2359       H  0.14341530  0.54644154  0.96099749     0.06500
N2360       N  0.10059189  0.63156739  0.99361562    -0.26500
N2361       N  0.18009219  0.61694917  0.96611426    -0.26100
N2362       N  0.08795304  0.63168684  0.90923971     0.00900
C2363       C  0.13930702  0.70400284  0.99160188     0.42300
C2364       C  0.17822077  0.63957048  0.88736580    -0.07400
N2365       N  0.14295350  0.58263879  0.97012843    -0.26100
H2366       H  0.21551599  0.61169865  0.95483417     0.06500
N2367       N  0.12396790  0.69957645  0.97473788    -0.47300
H2368       H  0.17471080  0.65172906  0.87348018     0.06500
C2369       C  0.12482152  0.55360038  0.90014123     0.42200
C2370       C  0.11424440  0.70008326  0.92190924    -0.06900
Co2371     Co  0.12491748  0.63056090  0.90378613     0.73800
N2372       N  0.19610839  0.61602799  0.91312282    -0.47000
C2373       C  0.06561038  0.63499848  0.00814162     0.42400
N2374       N  0.07065958  0.62458157  0.89564312    -0.47000
Co2375     Co  0.15888914  0.59930394  0.94301165     0.73900
C2376       C  0.13842844  0.56014035  0.97275845    -0.07400
C2377       C  0.14746919  0.68158613  0.00046918    -0.06900
N2378       N  0.07988266  0.64244300  0.92781160    -0.26400
N2379       N  0.18668895  0.64012586  0.99552875    -0.47200
H2380       H  0.09576286  0.61782817  0.02796971     0.06400
C2381       C  0.11572994  0.57610522  0.89074942    -0.07300
Cl2382     Cl  0.12994013  0.62982013  0.94638407    -0.50300
C2383       C  0.20077543  0.62996724  0.89538465     0.42200
H2384       H  0.04591682  0.65149741  0.94005363     0.06400
N2385       N  0.13860634  0.55971841  0.91776518    -0.47000
C2386       C  0.98225697  0.55360312  0.13101681     0.42000
N2387       N  0.97581629  0.58808399  0.14292986     0.00900
C2388       C  0.87605979  0.63264826  0.18939561    -0.06900
H2389       H  0.86614758  0.57510884  0.11048462     0.06400
C2390       C  0.91695059  0.64036663  0.06824634    -0.07300
Co2391     Co  0.93128592  0.59225571  0.16822840     0.74200
N2392       N  0.89276649  0.58784741  0.13380416    -0.26500
Co2393     Co  0.89195210  0.62527242  0.13518380     0.74100
C2394       C  0.89648435  0.62828707  0.06022126     0.42100
N2395       N  0.96652518  0.63855401  0.09808586     0.00600
N2396       N  0.89760649  0.62792000  0.09808784     0.00700
N2397       N  0.90181783  0.60862214  0.20650322    -0.47300
H2398       H  0.94961657  0.53964740  0.14906859     0.06400
N2399       N  0.90801657  0.57651094  0.14672518     0.00900
N2400       N  0.89316889  0.66273187  0.13611557     0.00700
C2401       C  0.88682845  0.69989104  0.13616305     0.42300
N2402       N  0.98114087  0.62680951  0.11110894    -0.25900
C2403       C  0.95642956  0.60943387  0.21344329    -0.06800
N2404       N  0.99056261  0.57539097  0.13084603    -0.47000
N2405       N  0.87728212  0.67881156  0.14165153    -0.47300
C2406       C  0.97685850  0.62379610  0.21805145     0.42100
N2407       N  0.90438476  0.60903566  0.18382874     0.00900
N2408       N  0.97578030  0.65935501  0.14866665    -0.25900
N2409       N  0.95845258  0.57593189  0.15126858    -0.26400
N2410       N  0.96178861  0.67177604  0.13555407     0.00600
H2411       H  0.00486056  0.66807621  0.17012678     0.06500
H2412       H  0.92218094  0.70735063  0.12004047     0.06500
N2413       N  0.88950734  0.62269548  0.17274452    -0.26500
N2414       N  0.91615375  0.63937855  0.09123387    -0.26100
N2415       N  0.97178510  0.62088369  0.18136088     0.00900
C2416       C  0.88980986  0.54873464  0.13003207     0.42300
C2417       C  0.99923872  0.62040236  0.09829883    -0.07400
N2418       N  0.91188098  0.67257997  0.12750179    -0.26100
H2419       H  0.93025695  0.64930591  0.05863788     0.06500
N2420       N  0.90661244  0.55378034  0.14515788    -0.47300
H2421       H  0.01474501  0.61193215  0.10470066     0.06500
C2422       C  0.98452796  0.69674139  0.15106622     0.42200
C2423       C  0.96127876  0.55371633  0.14509084    -0.06900
Co2424     Co  0.97650964  0.62369739  0.14622768     0.73800
N2425       N  0.97386404  0.64109437  0.07653014    -0.47000
C2426       C  0.88425774  0.62269145  0.21183611     0.42400
N2427       N  0.98534009  0.63008970  0.19724782    -0.47000
Co2428     Co  0.93901388  0.65558722  0.11301966     0.73900
C2429       C  0.90957279  0.69542237  0.12705785    -0.07400
C2430       C  0.88031224  0.57153389  0.12227951    -0.06900
N2431       N  0.95476224  0.60868338  0.19018647    -0.26400
N2432       N  0.88511231  0.62088673  0.07980098    -0.47200
H2433       H  0.86251185  0.64531827  0.18635573     0.06400
C2434       C  0.99017124  0.67355409  0.15975775    -0.07300
Cl2435     Cl  0.93448795  0.62423823  0.14065412    -0.50300
C2436       C  0.99416476  0.62958664  0.07535817     0.42200
H2437       H  0.94464523  0.60116747  0.22538264     0.06400
N2438       N  0.96669552  0.69415132  0.13611282    -0.47000
C2439       C  0.97661337  0.20724526  0.63795225     0.42000
N2440       N  0.97068747  0.17096058  0.63296550     0.00900
C2441       C  0.87632472  0.12173466  0.57822981    -0.06900
H2442       H  0.85876268  0.18065139  0.65270007     0.06400
C2443       C  0.90653177  0.11705178  0.70286393    -0.07300
Co2444     Co  0.92997895  0.16200645  0.60293766     0.74200
N2445       N  0.88748288  0.16693196  0.63243292    -0.26500
Co2446     Co  0.88874244  0.12942937  0.63300535     0.74100
C2447       C  0.88533667  0.12923451  0.70784706     0.42100
N2448       N  0.95885418  0.12164971  0.67995578     0.00600
N2449       N  0.89054317  0.12838979  0.67054360     0.00700
N2450       N  0.90458397  0.14343282  0.56261238    -0.47300
H2451       H  0.94561875  0.21711745  0.61468706     0.06400
N2452       N  0.90354777  0.17783167  0.62029549     0.00900
N2453       N  0.89262206  0.09200493  0.63333562     0.00700
C2454       C  0.88996028  0.05446456  0.63116654     0.42300
N2455       N  0.97383408  0.13467394  0.66881260    -0.25900
C2456       C  0.96094986  0.14410099  0.56278885    -0.06800
N2457       N  0.98481517  0.18586402  0.64293243    -0.47000
N2458       N  0.87939592  0.07491536  0.62485777    -0.47300
C2459       C  0.98242762  0.13084013  0.56133655     0.42100
N2460       N  0.90597601  0.14296411  0.58537474     0.00900
N2461       N  0.97643915  0.09955059  0.63234532    -0.25900
N2462       N  0.95396867  0.18120715  0.62124092    -0.26400
N2463       N  0.96115865  0.08680884  0.64336973     0.00600
H2464       H  0.00679074  0.09112543  0.61227224     0.06500
H2465       H  0.92253576  0.04930496  0.65318996     0.06500
N2466       N  0.88964690  0.13057582  0.59552621    -0.26500
N2467       N  0.90843751  0.11749532  0.67995820    -0.26100
N2468       N  0.97358225  0.13540495  0.59698419     0.00900
C2469       C  0.88325130  0.20622890  0.63332805     0.42300
C2470       C  0.98791326  0.14459019  0.68435564    -0.07400
N2471       N  0.91068225  0.08338544  0.64456941    -0.26100
H2472       H  0.91873863  0.10895543  0.71463414     0.06500
N2473       N  0.90153220  0.20051421  0.62036583    -0.47300
H2474       H  0.00279317  0.15519532  0.68033767     0.06500
C2475       C  0.98445448  0.06218434  0.62831842     0.42200
C2476       C  0.95634877  0.20421504  0.62313983    -0.06900
Co2477     Co  0.97412808  0.13527753  0.63281932     0.73800
N2478       N  0.96228823  0.12141491  0.70264398    -0.47000
C2479       C  0.88647254  0.13058352  0.55604413     0.42400
N2480       N  0.98954626  0.12650146  0.58317560    -0.47000
Co2481     Co  0.93476509  0.10220701  0.66204010     0.73900
C2482       C  0.91027845  0.06044041  0.64429841    -0.07400
C2483       C  0.87354023  0.18371510  0.64160494    -0.06900
N2484       N  0.95670351  0.14571842  0.58553815    -0.26400
N2485       N  0.87604527  0.13608560  0.68699179    -0.47200
H2486       H  0.86142345  0.11085542  0.58105928     0.06400
C2487       C  0.99188133  0.08556192  0.62214773    -0.07300
Cl2488     Cl  0.93151095  0.13225353  0.63273388    -0.50300
C2489       C  0.97991399  0.13606970  0.70684039     0.42200
H2490       H  0.95059797  0.15166370  0.54904653     0.06400
N2491       N  0.96544626  0.06435089  0.64167546    -0.47000
C2492       C  0.54426555  0.88814577  0.13541430     0.42000
N2493       N  0.58124858  0.89454216  0.13622587     0.00900
C2494       C  0.62571193  0.99583489  0.18180630    -0.06900
H2495       H  0.57161639  0.00635748  0.10765477     0.06400
C2496       C  0.63042296  0.96279251  0.06260049    -0.07300
Co2497     Co  0.58757994  0.93876810  0.16217059     0.74200
N2498       N  0.58210267  0.97795102  0.12958128    -0.26500
Co2499     Co  0.61779330  0.97897782  0.13116775     0.74100
C2500       C  0.61532488  0.98299147  0.05940249     0.42100
N2501       N  0.63299127  0.90907664  0.08873050     0.00600
N2502       N  0.61922185  0.97608896  0.09568108     0.00700
N2503       N  0.60517541  0.96863322  0.20120721    -0.47300
H2504       H  0.53603688  0.92129918  0.15513522     0.06400
N2505       N  0.57046821  0.96238718  0.14139980     0.00900
N2506       N  0.65347361  0.97899820  0.13274479     0.00700
C2507       C  0.68865437  0.98842344  0.13939736     0.42300
N2508       N  0.62080857  0.89285458  0.09934574    -0.25900
C2509       C  0.60330916  0.91463656  0.20494912    -0.06800
N2510       N  0.56536647  0.87943339  0.12863649    -0.47000
N2511       N  0.66647082  0.99510906  0.14240129    -0.47300
C2512       C  0.61673093  0.89484761  0.21172029     0.42100
N2513       N  0.60459522  0.96523650  0.17859681     0.00900
N2514       N  0.65650218  0.89477601  0.13673783    -0.25900
N2515       N  0.57107275  0.91226195  0.14657680    -0.26400
N2516       N  0.66695091  0.91142401  0.12497963     0.00600
H2517       H  0.67037841  0.86512433  0.15487582     0.06500
H2518       H  0.70245330  0.95640093  0.11975580     0.06500
N2519       N  0.61629788  0.98083154  0.16685962    -0.26500
N2520       N  0.63159298  0.95977839  0.08564659    -0.26100
N2521       N  0.61677123  0.89738021  0.17417291     0.00900
C2522       C  0.54430388  0.98256494  0.12445492     0.42300
C2523       C  0.61220857  0.87885730  0.08249297    -0.07400
N2524       N  0.66570507  0.96234562  0.12305433    -0.26100
H2525       H  0.63945938  0.95253488  0.04976448     0.06500
N2526       N  0.54778396  0.96468388  0.13910620    -0.47300
H2527       H  0.60126185  0.86408599  0.08575434     0.06500
C2528       C  0.69602803  0.89080934  0.13682787     0.42200
C2529       C  0.54830645  0.90958413  0.14709590    -0.06900
Co2530     Co  0.61888634  0.89358654  0.13670372     0.73800
N2531       N  0.63347378  0.90699766  0.06602295    -0.47000
C2532       C  0.61835567  0.98744653  0.20445878     0.42400
N2533       N  0.62479797  0.88449033  0.19185951    -0.47000
Co2534     Co  0.64954941  0.93560831  0.10547335     0.73900
C2535       C  0.68822551  0.96676446  0.12627262    -0.07400
C2536       C  0.56710316  0.99151062  0.11817657    -0.06900
N2537       N  0.60442917  0.91505584  0.18203528    -0.26400
N2538       N  0.60945908  0.99042115  0.08072626    -0.47200
H2539       H  0.63595496  0.01082230  0.17733531     0.06400
C2540       C  0.67358004  0.88074322  0.14510874    -0.07300
Cl2541     Cl  0.61856342  0.93631309  0.13391365    -0.50300
C2542       C  0.62092166  0.88846460  0.06003381     0.42200
H2543       H  0.59366899  0.92666625  0.21563796     0.06400
N2544       N  0.68974038  0.90961627  0.12460946    -0.47000
C2545       C  0.02430499  0.63157122  0.01768901    -0.09600
C2546       C  0.04683815  0.63699240  0.02487251     0.06600
C2547       C  0.05113515  0.64306558  0.04814242    -0.03300
C2548       C  0.03346190  0.64091927  0.06429254    -0.07800
C2549       C  0.01138138  0.63362932  0.05743388     0.05700
C2550       C  0.00642728  0.63005227  0.03385947    -0.02800
Br2551     Br  0.97611310  0.62154446  0.02320603    -0.02500
H2552       H  0.02082565  0.62756577  0.99965869     0.09700
H2553       H  0.03697199  0.64502610  0.08229552     0.07700
Br2554     Br  0.08001303  0.65579518  0.05877898    -0.02900
C2555       C  0.01588620  0.00636325  0.64227697    -0.09600
C2556       C  0.03371206  0.00731378  0.62577262     0.06600
C2557       C  0.03214495  0.02339616  0.60749396    -0.03300
C2558       C  0.01471047  0.04017145  0.60772186    -0.07800
C2559       C  0.99846181  0.04097254  0.62578594     0.05700
C2560       C  0.99817386  0.02289210  0.64237148    -0.02800
Br2561     Br  0.97578274  0.02051047  0.66692726    -0.02500
H2562       H  0.01641874  0.99363840  0.65610450     0.09700
H2563       H  0.01442906  0.05319400  0.59416288     0.07700
Br2564     Br  0.05312324  0.02322093  0.58179239    -0.02900
C2565       C  0.59986436  0.03504672  0.02430653    -0.09600
C2566       C  0.62048744  0.03849898  0.01213022     0.06600
C2567       C  0.63744695  0.02070848  0.01184011    -0.03300
C2568       C  0.63437185  0.00103637  0.02560905    -0.07800
C2569       C  0.61461659  0.99878605  0.03950909     0.05700
C2570       C  0.59660177  0.01516366  0.03752529    -0.02800
Br2571     Br  0.56737143  0.01143621  0.05278295    -0.02500
H2572       H  0.58636125  0.04803279  0.02386967     0.09700
H2573       H  0.64832251  0.98846361  0.02681705     0.07700
Br2574     Br  0.66629580  0.02294766  0.99537712    -0.02900
C2575       C  0.36505681  0.63158957  0.50058474    -0.09600
C2576       C  0.38430494  0.63178901  0.48542244     0.06600
C2577       C  0.40657479  0.63162690  0.49530090    -0.03300
C2578       C  0.40921275  0.63106554  0.51959632    -0.07800
C2579       C  0.38997018  0.63017181  0.53483610     0.05700
C2580       C  0.36763783  0.63079855  0.52489378    -0.02800
Br2581     Br  0.34000174  0.63109261  0.54330280    -0.02500
H2582       H  0.34770708  0.63114761  0.49336686     0.09700
H2583       H  0.42664163  0.63071615  0.52662073     0.07700
Br2584     Br  0.43384698  0.62961937  0.47641371    -0.02900
C2585       C  0.50944089  0.49622125  0.65158158    -0.09600
C2586       C  0.52242772  0.49359783  0.63121112     0.06600
C2587       C  0.51844690  0.50842296  0.61224314    -0.03300
C2588       C  0.50332382  0.52707842  0.61468581    -0.07800
C2589       C  0.49223167  0.53115247  0.63586843     0.05700
C2590       C  0.49455783  0.51510187  0.65420003    -0.02800
Br2591     Br  0.48129317  0.51994600  0.68438940    -0.02500
H2592       H  0.51261318  0.48502647  0.66637247     0.09700
H2593       H  0.50121656  0.53917923  0.60042097     0.07700
Br2594     Br  0.53447438  0.50487092  0.58328564    -0.02900
C2595       C  0.48778614  0.36188291  0.61487337    -0.09600
C2596       C  0.47226081  0.37874562  0.62391439     0.06600
C2597       C  0.48171783  0.39775508  0.63564985    -0.03300
C2598       C  0.50577326  0.39967465  0.63789470    -0.07800
C2599       C  0.52154499  0.38309462  0.62870028     0.05700
C2600       C  0.51206886  0.36382030  0.61720274    -0.02800
Br2601     Br  0.53094207  0.33947234  0.60474190    -0.02500
H2602       H  0.48098320  0.34703245  0.60565781     0.09700
H2603       H  0.51203713  0.41481988  0.64688714     0.07700
Br2604     Br  0.46326964  0.42279507  0.64757326    -0.02900
C2605       C  0.37105340  0.51855693  0.50316661    -0.09600
C2606       C  0.38876940  0.51832350  0.48652382     0.06600
C2607       C  0.40650664  0.50160150  0.48813754    -0.03300
C2608       C  0.40433647  0.48341237  0.50384762    -0.07800
C2609       C  0.38476130  0.48166075  0.51810089     0.05700
C2610       C  0.36891138  0.50037177  0.51903677    -0.02800
Br2611     Br  0.34248514  0.50116652  0.53926242    -0.02500
H2612       H  0.35758409  0.53167770  0.50253081     0.09700
H2613       H  0.41736386  0.46987641  0.50396940     0.07700
Br2614     Br  0.43330455  0.50195812  0.46840923    -0.02900
C2615       C  0.38964268  0.49405706  0.61106100    -0.09600
C2616       C  0.37993638  0.48016956  0.62870563     0.06600
C2617       C  0.37015546  0.49143684  0.64803747    -0.03300
C2618       C  0.37043949  0.51585962  0.64948277    -0.07800
C2619       C  0.37965927  0.52966010  0.63150058     0.05700
C2620       C  0.38958054  0.51835249  0.61232254    -0.02800
Br2621     Br  0.40419597  0.53543663  0.58782162    -0.02500
H2622       H  0.39655419  0.48589405  0.59560591     0.09700
H2623       H  0.36390909  0.52413724  0.66502910     0.07700
Br2624     Br  0.35548399  0.47423428  0.67235641    -0.02900
C2625       C  0.63970820  0.52847538  0.75225624    -0.09600
C2626       C  0.61977284  0.53187140  0.76566993     0.06600
C2627       C  0.60045295  0.51722689  0.76265340    -0.03300
C2628       C  0.60121068  0.50002735  0.74572901    -0.07800
C2629       C  0.62057608  0.49777314  0.73129229     0.05700
C2630       C  0.64022409  0.51159355  0.73505410    -0.02800
Br2631     Br  0.66788098  0.50852172  0.71679304    -0.02500
H2632       H  0.65460685  0.53964305  0.75454764     0.09700
H2633       H  0.58587652  0.48969995  0.74257545     0.07700
Br2634     Br  0.57131695  0.52187331  0.77810383    -0.02900
C2635       C  0.51045649  0.64825362  0.76915150    -0.09600
C2636       C  0.52335602  0.62791974  0.77264273     0.06600
C2637       C  0.51830653  0.60781384  0.75986893    -0.03300
C2638       C  0.50107543  0.60857202  0.74303756    -0.07800
C2639       C  0.48930822  0.62930865  0.73838754     0.05700
C2640       C  0.49342826  0.64907643  0.75193837    -0.02800
Br2641     Br  0.47719522  0.67766648  0.74650137    -0.02500
H2642       H  0.51450125  0.66377660  0.77889303     0.09700
H2643       H  0.49819317  0.59347522  0.73224496     0.07700
Br2644     Br  0.53653088  0.57995394  0.76238412    -0.02900
C2645       C  0.25731249  0.48259714  0.41239871    -0.09600
C2646       C  0.25316003  0.47124849  0.39132232     0.06600
C2647       C  0.26515572  0.47799702  0.37125913    -0.03300
C2648       C  0.28130981  0.49585216  0.37255517    -0.07800
C2649       C  0.28597400  0.50679132  0.39372159     0.05700
C2650       C  0.27397494  0.50000463  0.41385869    -0.02800
Br2651     Br  0.28180298  0.51140782  0.44414269    -0.02500
H2652       H  0.24855120  0.47697296  0.42803563     0.09700
H2653       H  0.29077400  0.50079929  0.35711860     0.07700
Br2654     Br  0.26014775  0.46327369  0.34185543    -0.02900
C2655       C  0.24010723  0.39216892  0.49886248    -0.09600
C2656       C  0.23904985  0.37219503  0.48504304     0.06600
C2657       C  0.25506829  0.35413911  0.48855491    -0.03300
C2658       C  0.27395990  0.35775889  0.50305954    -0.07800
C2659       C  0.27680796  0.37908389  0.51427039     0.05700
C2660       C  0.25899205  0.39585545  0.51339720    -0.02800
Br2661     Br  0.26094372  0.42556973  0.52833176    -0.02500
H2662       H  0.22768051  0.40611036  0.49657241     0.09700
H2663       H  0.28712145  0.34437663  0.50454494     0.07700
Br2664     Br  0.25275815  0.32500970  0.47266168    -0.02900
C2665       C  0.54033205  0.73113391  0.66172336    -0.09600
C2666       C  0.54148569  0.74521614  0.64195583     0.06600
C2667       C  0.52263942  0.74601134  0.62632495    -0.03300
C2668       C  0.50357134  0.73196784  0.63024637    -0.07800
C2669       C  0.50304128  0.71675134  0.64922007     0.05700
C2670       C  0.52120294  0.71703779  0.66556795    -0.02800
Br2671     Br  0.52099533  0.69853571  0.69330049    -0.02500
H2672       H  0.55444712  0.73091219  0.67414800     0.09700
H2673       H  0.48992933  0.73186604  0.61735091     0.07700
Br2674     Br  0.52242004  0.76356889  0.59788241    -0.02900
C2675       C  0.60358382  0.73986417  0.72627482    -0.09600
C2676       C  0.62464126  0.75198720  0.72634726     0.06600
C2677       C  0.64023014  0.74882574  0.74491221    -0.03300
C2678       C  0.63545898  0.73219232  0.76180568    -0.07800
C2679       C  0.61533128  0.71857388  0.76062807     0.05700
C2680       C  0.59859219  0.72359157  0.74352404    -0.02800
Br2681     Br  0.56844512  0.70962345  0.74331807    -0.02500
H2682       H  0.59110334  0.74280388  0.71249152     0.09700
H2683       H  0.64836133  0.72895996  0.77510768     0.07700
Br2684     Br  0.66956002  0.76431941  0.74694742    -0.02900
C2685       C  0.25988732  0.25060673  0.37202236    -0.09600
C2686       C  0.27944693  0.25104810  0.38643690     0.06600
C2687       C  0.27960984  0.26586393  0.40575606    -0.03300
C2688       C  0.26217892  0.28235220  0.40834494    -0.07800
C2689       C  0.24426904  0.28429364  0.39198573     0.05700
C2690       C  0.24210857  0.26693104  0.37477270    -0.02800
Br2691     Br  0.21639540  0.26483421  0.35367136    -0.02500
H2692       H  0.25904552  0.23851853  0.35768911     0.09700
H2693       H  0.26330127  0.29434833  0.42271906     0.07700
Br2694     Br  0.30296261  0.26430373  0.42929754    -0.02900
C2695       C  0.35390850  0.28221302  0.46162949    -0.09600
C2696       C  0.36910383  0.26327926  0.46336922     0.06600
C2697       C  0.38201207  0.26011458  0.48399269    -0.03300
C2698       C  0.38033673  0.27659519  0.50159277    -0.07800
C2699       C  0.36595514  0.29617032  0.49915567     0.05700
C2700       C  0.35186101  0.29830769  0.47930647    -0.02800
Br2701     Br  0.32922407  0.32243834  0.47471066    -0.02500
H2702       H  0.34368996  0.28502270  0.44621559     0.09700
H2703       H  0.39116118  0.27444101  0.51678152     0.07700
Br2704     Br  0.40342310  0.23497035  0.48916003    -0.02900
C2705       C  0.35680449  0.13301382  0.26627420    -0.09600
C2706       C  0.37625521  0.13147819  0.28116484     0.06600
C2707       C  0.39836679  0.12969913  0.27121791    -0.03300
C2708       C  0.40065230  0.12967478  0.24701360    -0.07800
C2709       C  0.38124226  0.13149054  0.23206625     0.05700
C2710       C  0.35908744  0.13300017  0.24202098    -0.02800
Br2711     Br  0.33143719  0.13421324  0.22358241    -0.02500
H2712       H  0.33962047  0.13489227  0.27363302     0.09700
H2713       H  0.41793788  0.12837341  0.23979252     0.07700
Br2714     Br  0.42607908  0.12920126  0.28964495    -0.02900
C2715       C  0.48791061  0.01272059  0.13811578    -0.09600
C2716       C  0.48846157  0.03014472  0.12112062     0.06600
C2717       C  0.50391785  0.02804809  0.10244792    -0.03300
C2718       C  0.52068416  0.01068119  0.10277271    -0.07800
C2719       C  0.52233562  0.99523402  0.12147636     0.05700
C2720       C  0.50466593  0.99518470  0.13844235    -0.02800
Br2721     Br  0.50342550  0.97364247  0.16388260    -0.02500
H2722       H  0.47561645  0.01370297  0.15226339     0.09700
H2723       H  0.53330668  0.01011244  0.08897874     0.07700
Br2724     Br  0.50335862  0.04864987  0.07640614    -0.02900
C2725       C  0.50933658  0.10286104  0.03703755    -0.09600
C2726       C  0.49371800  0.12142513  0.03884065     0.06600
C2727       C  0.49315036  0.13838263  0.02109560    -0.03300
C2728       C  0.51063992  0.13841704  0.00437913    -0.07800
C2729       C  0.52816463  0.12148637  0.00482236     0.05700
C2730       C  0.52631182  0.10262864  0.02002604    -0.02800
Br2731     Br  0.54648686  0.07626075  0.01834438    -0.02500
H2732       H  0.50911225  0.08896840  0.04955706     0.09700
H2733       H  0.51135490  0.15258356  0.99204096     0.07700
Br2734     Br  0.47049557  0.16285369  0.01927700    -0.02900
C2735       C  0.34271737  0.62607792  0.25173352    -0.09600
C2736       C  0.36137812  0.62532061  0.23585136     0.06600
C2737       C  0.38400283  0.62339983  0.24496803    -0.03300
C2738       C  0.38739410  0.62114901  0.26909643    -0.07800
C2739       C  0.36868120  0.62137968  0.28486520     0.05700
C2740       C  0.34616143  0.62404322  0.27585436    -0.02800
Br2741     Br  0.31947031  0.62312908  0.29562253    -0.02500
H2742       H  0.32515429  0.62793709  0.24531055     0.09700
H2743       H  0.40488715  0.61892725  0.27562586     0.07700
Br2744     Br  0.41097195  0.62532936  0.22567774    -0.02900
C2745       C  0.24752520  0.62547766  0.99780424    -0.09600
C2746       C  0.22942377  0.64168186  0.99689593     0.06600
C2747       C  0.23097503  0.66196999  0.01025713    -0.03300
C2748       C  0.24743776  0.66341210  0.02782274    -0.07800
C2749       C  0.26303218  0.64514238  0.03163602     0.05700
C2750       C  0.26477411  0.62735736  0.01475880    -0.02800
Br2751     Br  0.28886935  0.60424716  0.01440289    -0.02500
H2752       H  0.24731142  0.61040501  0.98662296     0.09700
H2753       H  0.24707753  0.67820920  0.03936148     0.07700
Br2754     Br  0.21069324  0.68783842  0.00556674    -0.02900
C2755       C  0.36139544  0.23966162  0.60034015    -0.09600
C2756       C  0.36709240  0.22995037  0.62187520     0.06600
C2757       C  0.37174134  0.24514871  0.64055664    -0.03300
C2758       C  0.37076467  0.26941068  0.63752478    -0.07800
C2759       C  0.36478542  0.27910171  0.61598937     0.05700
C2760       C  0.36010359  0.26379990  0.59731328    -0.02800
Br2761     Br  0.34957807  0.27473210  0.56763688    -0.02500
H2762       H  0.35629186  0.22841545  0.58619682     0.09700
H2763       H  0.37499550  0.28067075  0.65192567     0.07700
Br2764     Br  0.37871228  0.23323864  0.67086813    -0.02900
C2765       C  0.36122771  0.11827532  0.51371460    -0.09600
C2766       C  0.36632722  0.13533166  0.53060657     0.06600
C2767       C  0.37231319  0.15759564  0.52274140    -0.03300
C2768       C  0.37377325  0.16212012  0.49887209    -0.07800
C2769       C  0.36946331  0.14496945  0.48184113     0.05700
C2770       C  0.36268964  0.12283702  0.48969624    -0.02800
Br2771     Br  0.35508083  0.09818407  0.46876975    -0.02500
H2772       H  0.35585495  0.10115491  0.51924156     0.09700
H2773       H  0.37791284  0.17966471  0.49383447     0.07700
Br2774     Br  0.37665187  0.18333541  0.54331573    -0.02900
C2775       C  0.25329875  0.02054205  0.62103182    -0.09600
C2776       C  0.25585026  0.03512359  0.64026327     0.06600
C2777       C  0.24281226  0.03122998  0.66035844    -0.03300
C2778       C  0.22606432  0.01399233  0.66027212    -0.07800
C2779       C  0.22159929  0.00112998  0.64020552     0.05700
C2780       C  0.23603140  0.00378395  0.62064784    -0.02800
Br2781     Br  0.23127211  0.98794540  0.59173956    -0.02500
H2782       H  0.26333221  0.02352753  0.60543912     0.09700
H2783       H  0.21568635  0.01141740  0.67554146     0.07700
Br2784     Br  0.24655798  0.04956482  0.68783710    -0.02900
C2785       C  0.48936985  0.28260714  0.34984828    -0.09600
C2786       C  0.50189895  0.28472966  0.37057662     0.06600
C2787       C  0.49902167  0.26786359  0.38809984    -0.03300
C2788       C  0.48150652  0.25142458  0.38582549    -0.07800
C2789       C  0.46712696  0.25117386  0.36615967     0.05700
C2790       C  0.47243796  0.26564804  0.34728863    -0.02800
Br2791     Br  0.45781997  0.26263479  0.31757559    -0.02500
H2792       H  0.49224438  0.29464983  0.33583836     0.09700
H2793       H  0.47822556  0.23977797  0.40020872     0.07700
Br2794     Br  0.51645642  0.26735202  0.41651547    -0.02900
C2795       C  0.48181134  0.40308913  0.47205460    -0.09600
C2796       C  0.49903481  0.38602045  0.47295484     0.06600
C2797       C  0.50097505  0.37200460  0.49301481    -0.03300
C2798       C  0.48379187  0.37340979  0.51004349    -0.07800
C2799       C  0.46511108  0.38896790  0.50764568     0.05700
C2800       C  0.46517951  0.40495953  0.48917726    -0.02800
Br2801     Br  0.44298911  0.42953772  0.48532043    -0.02500
H2802       H  0.48043813  0.41455834  0.45737998     0.09700
H2803       H  0.48452910  0.36145553  0.52451815     0.07700
Br2804     Br  0.52544318  0.34980491  0.49800384    -0.02900
C2805       C  0.61248665  0.36162389  0.50290643    -0.09600
C2806       C  0.61382031  0.37956336  0.48624579     0.06600
C2807       C  0.61758520  0.40226738  0.49406628    -0.03300
C2808       C  0.62036280  0.40658190  0.51786208    -0.07800
C2809       C  0.61953452  0.38864424  0.53469292     0.05700
C2810       C  0.61535821  0.36590968  0.52681571    -0.02800
Br2811     Br  0.61371585  0.34002608  0.54763736    -0.02500
H2812       H  0.60890261  0.34408340  0.49727718     0.09700
H2813       H  0.62270818  0.42440986  0.52313349     0.07700
Br2814     Br  0.61683209  0.42831520  0.47326821    -0.02900
C2815       C  0.50541899  0.49141624  0.37326001    -0.09600
C2816       C  0.50534104  0.47313078  0.38935889     0.06600
C2817       C  0.49086328  0.47484465  0.40886890    -0.03300
C2818       C  0.47411974  0.49231351  0.41002716    -0.07800
C2819       C  0.47199131  0.50894162  0.39233422     0.05700
C2820       C  0.48921354  0.50956885  0.37484610    -0.02800
Br2821     Br  0.49139863  0.53388788  0.35215966    -0.02500
H2822       H  0.51733074  0.49105889  0.35875612     0.09700
H2823       H  0.46234377  0.49246691  0.42461100     0.07700
Br2824     Br  0.49400545  0.45454862  0.43492064    -0.02900
C2825       C  0.50882961  0.64353058  0.40528120    -0.09600
C2826       C  0.52591480  0.62915747  0.39491914     0.06600
C2827       C  0.51873419  0.61349499  0.37777739    -0.03300
C2828       C  0.49518691  0.61176873  0.37221759    -0.07800
C2829       C  0.47779997  0.62447648  0.38413707     0.05700
C2830       C  0.48508534  0.64117403  0.40028629    -0.02800
Br2831     Br  0.46369925  0.66060358  0.41680126    -0.02500
H2832       H  0.51371447  0.65644845  0.41791181     0.09700
H2833       H  0.49069452  0.59956789  0.35879884     0.07700
Br2834     Br  0.53964316  0.59242734  0.36260450    -0.02900
C2835       C  0.54343201  0.60897981  0.53663796    -0.09600
C2836       C  0.54266287  0.62559729  0.51886498     0.06600
C2837       C  0.52329056  0.64058751  0.51733648    -0.03300
C2838       C  0.50604230  0.63944253  0.53428688    -0.07800
C2839       C  0.50752547  0.62343794  0.55267079     0.05700
C2840       C  0.52601258  0.60745614  0.55315504    -0.02800
Br2841     Br  0.52860842  0.58271065  0.57540292    -0.02500
H2842       H  0.55786699  0.59713601  0.53805985     0.09700
H2843       H  0.49191802  0.65181712  0.53346024     0.07700
Br2844     Br  0.51968370  0.66407108  0.49387345    -0.02900
C2845       C  0.63620949  0.51637929  0.50983129    -0.09600
C2846       C  0.61990149  0.53430704  0.50845514     0.06600
C2847       C  0.60029350  0.53392022  0.52285343    -0.03300
C2848       C  0.59861203  0.51727894  0.54025302    -0.07800
C2849       C  0.61623396  0.50078786  0.54342987     0.05700
C2850       C  0.63459433  0.49953911  0.52710807    -0.02800
Br2851     Br  0.65939173  0.47712085  0.52799077    -0.02500
H2852       H  0.65115571  0.51633814  0.49846495     0.09700
H2853       H  0.58385158  0.51780141  0.55183811     0.07700
Br2854     Br  0.57530533  0.55556237  0.51935498    -0.02900
C2855       C  0.63377887  0.51221610  0.38429796    -0.09600
C2856       C  0.61642472  0.52523980  0.39554032     0.06600
C2857       C  0.59898709  0.51310935  0.40759301    -0.03300
C2858       C  0.59865677  0.48869195  0.40753707    -0.31800
C2859       C  0.61598989  0.47568791  0.39624265     0.05700
C2860       C  0.63349448  0.48778048  0.38433630    -0.02800
Br2861     Br  0.65674682  0.47148494  0.36702632    -0.02500
H2862       H  0.64794647  0.52112041  0.37582034     0.09700
H2863       H  0.58446159  0.47977985  0.41597102     0.07700
Br2864     Br  0.57567561  0.52924291  0.42501324    -0.02900
C2865       C  0.62006026  0.73432193  0.50646767    -0.09600
C2866       C  0.64035119  0.72090663  0.50465357     0.06600
C2867       C  0.65979892  0.72670828  0.51801409    -0.03300
C2868       C  0.65772298  0.74356314  0.53504590    -0.07800
C2869       C  0.63666791  0.75503084  0.53888792     0.05700
C2870       C  0.61802469  0.75138776  0.52346711    -0.02800
Br2871     Br  0.58854931  0.76679028  0.52603160    -0.02500
H2872       H  0.60507428  0.73039070  0.49585149     0.09700
H2873       H  0.67239024  0.74699437  0.54603313     0.07700
Br2874     Br  0.68947715  0.71227035  0.51398244    -0.02900
C2875       C  0.36807339  0.26405664  0.15738863    -0.09600
C2876       C  0.37586694  0.28012469  0.14034459     0.06600
C2877       C  0.38479413  0.27086663  0.11961100    -0.03300
C2878       C  0.38694268  0.24663732  0.11698334    -0.07800
C2879       C  0.38035322  0.23080588  0.13460637     0.05700
C2880       C  0.37024791  0.23990166  0.15475108    -0.02800
Br2881     Br  0.36086928  0.22037964  0.18002615    -0.02500
H2882       H  0.36060558  0.27017105  0.17342558     0.09700
H2883       H  0.39442498  0.24012206  0.10104433     0.07700
Br2884     Br  0.39395822  0.28999433  0.09407554    -0.02900
C2885       C  0.34279659  0.51236132  0.13492700    -0.09600
C2886       C  0.35828986  0.53004453  0.14201717     0.06600
C2887       C  0.37907863  0.52317967  0.15293557    -0.03300
C2888       C  0.38408207  0.49948884  0.15584600    -0.07800
C2889       C  0.36854928  0.48197431  0.14866957     0.05700
C2890       C  0.34767614  0.48875153  0.13814517    -0.02800
Br2891     Br  0.32426129  0.46680538  0.12953072    -0.02500
H2892       H  0.32627408  0.51658682  0.12719123     0.09700
H2893       H  0.40025693  0.49480561  0.16419796     0.07700
Br2894     Br  0.40106622  0.54493664  0.16504506    -0.02900
C2895       C  0.35283812  0.46817623  0.28225433    -0.09600
C2896       C  0.37154167  0.46776909  0.26677656     0.06600
C2897       C  0.38763479  0.48612781  0.26713519    -0.03300
C2898       C  0.38586601  0.50309002  0.28430298    -0.07800
C2899       C  0.36814013  0.50227961  0.30096651     0.05700
C2900       C  0.35066736  0.48547887  0.29889596    -0.02800
Br2901     Br  0.32307713  0.48550312  0.31748898    -0.02500
H2902       H  0.34005834  0.45462319  0.28180686     0.09700
H2903       H  0.39919916  0.51622585  0.28534820     0.07700
Br2904     Br  0.41368849  0.48811112  0.24651867    -0.02900
C2905       C  0.27257982  0.36507284  0.26568572    -0.09600
C2906       C  0.28654156  0.38448887  0.26216392     0.06600
C2907       C  0.28344657  0.40438682  0.27579842    -0.03300
C2908       C  0.26791574  0.40392841  0.29422589    -0.07800
C2909       C  0.25495075  0.38397988  0.29869112     0.05700
C2910       C  0.25677748  0.36459997  0.28383256    -0.02800
Br2911     Br  0.24047010  0.33595782  0.28858188    -0.02500
H2912       H  0.27499794  0.34964381  0.25524430     0.09700
H2913       H  0.26603941  0.41909479  0.30514720     0.07700
Br2914     Br  0.29928876  0.43268340  0.26922572    -0.02900
C2915       C  0.36651461  0.26431951  0.24506960    -0.09600
C2916       C  0.38511458  0.27985748  0.24677581     0.06600
C2917       C  0.40352129  0.27495590  0.26194044    -0.03300
C2918       C  0.40147723  0.25653089  0.27740145    -0.07800
C2919       C  0.38121201  0.24315760  0.27807645     0.05700
C2920       C  0.36417267  0.24620391  0.26078669    -0.02800
Br2921     Br  0.33538785  0.22960649  0.25966247    -0.02500
H2922       H  0.35236206  0.26755176  0.23314493     0.09700
H2923       H  0.41492543  0.25382770  0.29024213     0.07700
Br2924     Br  0.43104056  0.29353759  0.26311033    -0.02900
C2925       C  0.47875298  0.35133350  0.26606882    -0.09600
C2926       C  0.47348849  0.37186085  0.25411461     0.06600
C2927       C  0.48845615  0.39114222  0.25613985    -0.03300
C2928       C  0.50679365  0.39024811  0.27187447    -0.07800
C2929       C  0.51035285  0.37056182  0.28563089     0.05700
C2930       C  0.49722593  0.35052794  0.28160907    -0.02800
Br2931     Br  0.50371184  0.32193325  0.29723535    -0.02500
H2932       H  0.46793100  0.33616377  0.26400672     0.09700
H2933       H  0.51694197  0.40573884  0.27482822     0.07700
Br2934     Br  0.48345021  0.42033782  0.24074099    -0.02900
C2935       C  0.21702877  0.52445408  0.16019578    -0.09600
C2936       C  0.21419780  0.51004624  0.14078313     0.06600
C2937       C  0.22698856  0.51459436  0.12042618    -0.03300
C2938       C  0.24214297  0.53328331  0.11985932    -0.07800
C2939       C  0.24411728  0.54828253  0.13879559     0.05700
C2940       C  0.23182207  0.54358713  0.15933436    -0.02800
Br2941     Br  0.23477815  0.56244678  0.18660807    -0.02500
H2942       H  0.20710183  0.52124030  0.17581887     0.09700
H2943       H  0.25131357  0.53701345  0.10388868     0.07700
Br2944     Br  0.22229291  0.49867879  0.09155477    -0.02900
C2945       C  0.23909556  0.39331157  0.12441536    -0.09600
C2946       C  0.22412181  0.38895264  0.14333658     0.06600
C2947       C  0.23400465  0.38300247  0.16476171    -0.03300
C2948       C  0.25819218  0.38206854  0.16703788    -0.07800
C2949       C  0.27333091  0.38683491  0.14826651     0.05700
C2950       C  0.26335706  0.39220992  0.12661738    -0.02800
Br2951     Br  0.28149791  0.39751918  0.09931655    -0.02500
H2952       H  0.23181907  0.39809403  0.10772937     0.09700
H2953       H  0.26517761  0.37783182  0.18396890     0.07700
Br2954     Br  0.21556487  0.37786898  0.19193686    -0.02900
C2955       C  0.11302382  0.38276321  0.25179116    -0.09600
C2956       C  0.12862969  0.39314295  0.23622948     0.06600
C2957       C  0.14860616  0.40388730  0.24509152    -0.03300
C2958       C  0.15317258  0.40331233  0.26898420    -0.07800
C2959       C  0.13767230  0.39276931  0.28457047     0.05700
C2960       C  0.11753097  0.38228866  0.27575111    -0.02800
Br2961     Br  0.09657641  0.36586313  0.29560651    -0.02500
H2962       H  0.09710254  0.37525901  0.24529607     0.09700
H2963       H  0.16900910  0.41102907  0.27544700     0.07700
Br2964     Br  0.16938304  0.42061927  0.22521714    -0.02900
C2965       C  0.13736568  0.51983706  0.00600801    -0.09600
C2966       C  0.12115120  0.53787194  0.00767759     0.06600
C2967       C  0.10337338  0.53668022  0.02423187    -0.03300
C2968       C  0.10353783  0.51870095  0.04034144    -0.07800
C2969       C  0.12150244  0.50217357  0.04052723     0.05700
C2970       C  0.13804958  0.50220911  0.02243555    -0.02800
Br2971     Br  0.16426964  0.48168839  0.02017000    -0.02500
H2972       H  0.15103284  0.52052281  0.99316516     0.09700
H2973       H  0.09036744  0.51853000  0.05374094     0.07700
Br2974     Br  0.07908015  0.55947176  0.02624647    -0.02900
C2975       C  0.99231817  0.51199057  0.13326998    -0.09600
C2976       C  0.99509288  0.53345632  0.12223147     0.06600
C2977       C  0.01237541  0.53588040  0.10517252    -0.03300
C2978       C  0.02941414  0.51886152  0.10314775    -0.07800
C2979       C  0.02915733  0.49932296  0.11767250     0.05700
C2980       C  0.00898511  0.49462986  0.13072927    -0.02800
Br2981     Br  0.00346180  0.46590253  0.14672034    -0.02500
H2982       H  0.97818422  0.50922252  0.14528314     0.09700
H2983       H  0.04369690  0.52180649  0.09135807     0.07700
Br2984     Br  0.01408530  0.56210220  0.08468133    -0.02900
C2985       C  0.23912692  0.35290824  0.63131490    -0.09600
C2986       C  0.22262956  0.37089031  0.62788054     0.06600
C2987       C  0.23100452  0.39336036  0.62336531    -0.03300
C2988       C  0.25500600  0.39711612  0.62156375    -0.07800
C2989       C  0.27135528  0.37897617  0.62431095     0.05700
C2990       C  0.26310211  0.35673251  0.62959695    -0.02800
Br2991     Br  0.28356998  0.33061432  0.63279393    -0.02500
H2992       H  0.23338121  0.33542890  0.63499229     0.09700
H2993       H  0.26095497  0.41446808  0.61758606     0.07700
Br2994     Br  0.21104298  0.41985072  0.62036273    -0.02900
C2995       C  0.21802251  0.24409538  0.60159718    -0.09600
C2996       C  0.21539931  0.25513801  0.62309776     0.06600
C2997       C  0.23097944  0.25010532  0.64127926    -0.03300
C2998       C  0.24817871  0.23352982  0.63792133    -0.07800
C2999       C  0.24979512  0.22131369  0.61697811     0.05700
C3000       C  0.23520073  0.22731189  0.59837054    -0.02800
Br3001     Br  0.23813476  0.21333950  0.56839686    -0.02500
H3002       H  0.20623302  0.24807506  0.58749644     0.09700
H3003       H  0.25920122  0.22894875  0.65247542     0.07700
Br3004     Br  0.22788333  0.26214309  0.67217873    -0.02900
C3005       C  0.10407830  0.37794257  0.51773289    -0.09600
C3006       C  0.12336845  0.37695465  0.53287758     0.06600
C3007       C  0.14564624  0.37655347  0.52328643    -0.03300
C3008       C  0.14831037  0.37619599  0.49918120    -0.07800
C3009       C  0.12910819  0.37690940  0.48387979     0.05700
C3010       C  0.10678454  0.37829106  0.49346927    -0.02800
Br3011     Br  0.07974791  0.38161636  0.47440631    -0.02500
H3012       H  0.08671320  0.37768263  0.52487507     0.09700
H3013       H  0.16574963  0.37540163  0.49232872     0.07700
Br3014     Br  0.17291532  0.37477843  0.54234403    -0.02900
C3015       C  0.02554863  0.24537893  0.65593602    -0.09600
C3016       C  0.02703915  0.25996256  0.63667840     0.06600
C3017       C  0.00823058  0.26120798  0.62098475    -0.03300
C3018       C  0.99016633  0.24524186  0.62305029    -0.07800
C3019       C  0.99077109  0.22817148  0.64044913     0.05700
C3020       C  0.00777779  0.22945375  0.65787047    -0.02800
Br3021     Br  0.00910227  0.20889269  0.68379309    -0.02500
H3022       H  0.03911940  0.24528990  0.66885695     0.09700
H3023       H  0.97682009  0.24498205  0.60983417     0.07700
Br3024     Br  0.00702867  0.28224068  0.59513278    -0.02900
C3025       C  0.60767079  0.35119841  0.25158236    -0.09600
C3026       C  0.62262406  0.36508243  0.23834433     0.06600
C3027       C  0.63800696  0.38000780  0.24999187    -0.03300
C3028       C  0.63747973  0.38160603  0.27434943    -0.07800
C3029       C  0.62229430  0.36786052  0.28752218     0.05700
C3030       C  0.60726518  0.35263126  0.27583705    -0.02800
Br3031     Br  0.58534108  0.33391253  0.29237474    -0.02500
H3032       H  0.59655046  0.33876941  0.24299054     0.09700
H3033       H  0.64857764  0.39400845  0.28299037     0.07700
Br3034     Br  0.66061745  0.39769935  0.23331480    -0.02900
C3035       C  0.51292416  0.25376949  0.12452759    -0.09600
C3036       C  0.52850463  0.25543680  0.14302706     0.06600
C3037       C  0.52658514  0.24012057  0.16188199    -0.03300
C3038       C  0.51134505  0.22153783  0.16071287    -0.07800
C3039       C  0.49725834  0.21847775  0.14122978     0.05700
C3040       C  0.49714974  0.23554988  0.12350637    -0.02800
Br3041     Br  0.47798075  0.23426641  0.09622540    -0.02500
H3042       H  0.51407279  0.26567969  0.11001860     0.09700
H3043       H  0.51074962  0.20927712  0.17491750     0.07700
Br3044     Br  0.54395720  0.24423740  0.18974433    -0.02900
C3045       C  0.49074694  0.39726595  0.14385883    -0.09600
C3046       C  0.47478305  0.37880314  0.14190643     0.06600
C3047       C  0.48353099  0.35614081  0.14043180    -0.03300
C3048       C  0.50753379  0.35230411  0.14146937    -0.07800
C3049       C  0.52359851  0.37069399  0.14382259     0.05700
C3050       C  0.51484533  0.39345468  0.14477310    -0.02800
Br3051     Br  0.53468747  0.41992745  0.14678721    -0.02500
H3052       H  0.48431231  0.41486087  0.14559404     0.09700
H3053       H  0.51368125  0.33455835  0.14053243     0.07700
Br3054     Br  0.46347627  0.32972378  0.13882428    -0.02900
C3055       C  0.60159603  0.23711349  0.00874685    -0.09600
C3056       C  0.62275316  0.22675279  0.00280071     0.06600
C3057       C  0.64328823  0.23360555  0.01389350    -0.03300
C3058       C  0.64226473  0.24967471  0.03183575    -0.07800
C3059       C  0.62093434  0.25883392  0.03889409     0.05700
C3060       C  0.60044703  0.25288314  0.02698210    -0.02800
Br3061     Br  0.57014847  0.26255596  0.03701393    -0.02500
H3062       H  0.58566568  0.23139130  0.00062157     0.09700
H3063       H  0.65801867  0.25426676  0.04098038     0.07700
Br3064     Br  0.67286961  0.22062674  0.00583005    -0.02900
C3065       C  0.23853763  0.10832724  0.72664731    -0.09600
C3066       C  0.24980904  0.12926502  0.72192473     0.06600
C3067       C  0.24771476  0.14786606  0.73773356    -0.03300
C3068       C  0.23278263  0.14580725  0.75667911    -0.07800
C3069       C  0.21990100  0.12553663  0.76004715     0.05700
C3070       C  0.22381211  0.10628375  0.74564711    -0.02800
Br3071     Br  0.20907211  0.07700889  0.75093765    -0.02500
H3072       H  0.24063999  0.09368908  0.71511910     0.09700
H3073       H  0.22986632  0.16075287  0.76767163     0.07700
Br3074     Br  0.26218683  0.17746792  0.73314103    -0.02900
C3075       C  0.15601223  0.03207029  0.74613473    -0.09600
C3076       C  0.13788443  0.03326433  0.76211341     0.06600
C3077       C  0.12234685  0.01442290  0.76404096    -0.03300
C3078       C  0.12290326  0.99704915  0.74730030    -0.07800
C3079       C  0.13869082  0.99823303  0.72890774     0.05700
C3080       C  0.15661779  0.01462660  0.72966297    -0.02800
Br3081     Br  0.18165077  0.01502354  0.70810351    -0.02500
H3082       H  0.16893949  0.04557068  0.74541945     0.09700
H3083       H  0.10955676  0.98391057  0.74757671     0.07700
Br3084     Br  0.09826222  0.01213468  0.78694131    -0.02900
C3085       C  0.10028206  0.22102676  0.74283670    -0.09600
C3086       C  0.11910416  0.22110571  0.75823041     0.06600
C3087       C  0.13575368  0.23892737  0.75675103    -0.03300
C3088       C  0.13370661  0.25553097  0.73934627    -0.07800
C3089       C  0.11589594  0.25431480  0.72281559     0.05700
C3090       C  0.09863411  0.23733392  0.72509987    -0.02800
Br3091     Br  0.07279234  0.23502798  0.70436554    -0.02500
H3092       H  0.08730426  0.20752215  0.74395543     0.09700
H3093       H  0.14728906  0.26832427  0.73773646     0.07700
Br3094     Br  0.16363428  0.24021741  0.77498090    -0.02900
C3095       C  0.02318165  0.15317746  0.75199579    -0.09600
C3096       C  0.03192867  0.13137364  0.75826341     0.06600
C3097       C  0.02008422  0.11116804  0.75135433    -0.03300
C3098       C  0.00179680  0.11300869  0.73559902    -0.07800
C3099       C  0.99449202  0.13479580  0.72761515     0.05700
C3100       C  0.00389031  0.15490391  0.73746242    -0.02800
Br3101     Br  0.98934966  0.18446547  0.73338444    -0.02500
H3102       H  0.03125784  0.16880045  0.75852109     0.09700
H3103       H  0.99412089  0.09736349  0.72865747     0.07700
Br3104     Br  0.02915238  0.08058792  0.76117531    -0.02900
C3105       C  0.74781287  0.73700553  0.59931510    -0.09600
C3106       C  0.76328284  0.73480277  0.61791437     0.06600
C3107       C  0.76477325  0.75301865  0.63422184    -0.03300
C3108       C  0.74702698  0.76953576  0.63498286    -0.07800
C3109       C  0.72860005  0.76838831  0.61916101     0.05700
C3110       C  0.73057236  0.75384843  0.59977387    -0.02800
Br3111     Br  0.70955166  0.75539809  0.57423243    -0.02500
H3112       H  0.74778149  0.72440921  0.58541695     0.09700
H3113       H  0.74663752  0.78180845  0.64916976     0.07700
Br3114     Br  0.78903204  0.75552899  0.65690997    -0.02900
C3115       C  0.74387622  0.52679779  0.64319296    -0.09600
C3116       C  0.73653120  0.54937538  0.63743023     0.06600
C3117       C  0.71264952  0.55374353  0.63398607    -0.03300
C3118       C  0.69681859  0.53581441  0.63647399    -0.07800
C3119       C  0.70406954  0.51327273  0.64209950     0.05700
C3120       C  0.72779685  0.50875562  0.64557073    -0.02800
Br3121     Br  0.73877343  0.47858633  0.65448529    -0.02500
H3122       H  0.76211208  0.52322701  0.64605376     0.09700
H3123       H  0.67866737  0.53947530  0.63322134     0.07700
Br3124     Br  0.70012048  0.58306759  0.62389852    -0.02900
C3125       C  0.74368604  0.64218600  0.74087310    -0.09600
C3126       C  0.74264037  0.62753408  0.72156919     0.06600
C3127       C  0.72730841  0.60851891  0.72191667    -0.03300
C3128       C  0.71091597  0.60675545  0.73953273    -0.07800
C3129       C  0.71005137  0.62306779  0.75747945     0.05700
C3130       C  0.72784542  0.63989483  0.75904968    -0.02800
Br3131     Br  0.73136013  0.66110274  0.78451456    -0.02500
H3132       H  0.75612729  0.65620734  0.74132879     0.09700
H3133       H  0.69848500  0.59274415  0.73889590     0.07700
Br3134     Br  0.72835669  0.58370471  0.69971433    -0.02900
C3135       C  0.76150617  0.62185122  0.51822638    -0.09600
C3136       C  0.75923211  0.64057798  0.53363371     0.06600
C3137       C  0.74357882  0.65854023  0.52839169    -0.03300
C3138       C  0.72811301  0.65573387  0.51007353    -0.07800
C3139       C  0.72797902  0.63523745  0.49698434     0.05700
C3140       C  0.74604433  0.61897548  0.49993932    -0.02800
Br3141     Br  0.74920681  0.59087826  0.48239377    -0.02500
H3142       H  0.77398853  0.60817159  0.52143240     0.09700
H3143       H  0.71487718  0.66877332  0.50723759     0.07700
Br3144     Br  0.74183972  0.68660305  0.54616864    -0.02900
C3145       C  0.73827785  0.22404944  0.15195565    -0.09600
C3146       C  0.75385844  0.22364995  0.13338671     0.06600
C3147       C  0.75004920  0.23752832  0.11375924    -0.03300
C3148       C  0.73006932  0.25110965  0.11245009    -0.07800
C3149       C  0.71397827  0.25064701  0.13055103     0.05700
C3150       C  0.71823611  0.23738997  0.15062231    -0.02800
Br3151     Br  0.69648924  0.23562533  0.17582110    -0.02500
H3152       H  0.74089216  0.21268987  0.16674970     0.09700
H3153       H  0.72690713  0.26171640  0.09722295     0.07700
Br3154     Br  0.77123082  0.23742379  0.08815949    -0.02900
C3155       C  0.75313363  0.13154815  0.02116862    -0.09600
C3156       C  0.75149700  0.14724782  0.03962999     0.06600
C3157       C  0.73527401  0.16556159  0.03812349    -0.03300
C3158       C  0.71778402  0.16461669  0.02146050    -0.07800
C3159       C  0.71701527  0.14641562  0.00540477     0.05700
C3160       C  0.73632982  0.13129606  0.00373137    -0.02800
Br3161     Br  0.74048794  0.10886871  0.97945734    -0.02500
H3162       H  0.76652680  0.11832065  0.02110641     0.09700
H3163       H  0.70424227  0.17766895  0.02168894     0.07700
Br3164     Br  0.73618152  0.19247737  0.05762655    -0.02900
C3165       C  0.72615560  0.00313809  0.12533739    -0.09600
C3166       C  0.70825744  0.00438595  0.14169722     0.06600
C3167       C  0.70811211  0.02255784  0.15800103    -0.03300
C3168       C  0.72478600  0.03986743  0.15662170    -0.07800
C3169       C  0.74146588  0.03974582  0.13893599     0.05700
C3170       C  0.74259317  0.02065783  0.12362008    -0.02800
Br3171     Br  0.76423115  0.01794648  0.09841058    -0.02500
H3172       H  0.72654608  0.98930935  0.11267031     0.09700
H3173       H  0.72412066  0.05391425  0.16904261     0.07700
Br3174     Br  0.68551011  0.02522748  0.18226254    -0.02900
C3175       C  0.11497477  0.51839448  0.37866332    -0.09600
C3176       C  0.13432408  0.53307650  0.38192488     0.06600
C3177       C  0.15628556  0.52274892  0.38387974    -0.03300
C3178       C  0.15849029  0.49854888  0.38302910    -0.07800
C3179       C  0.13916560  0.48388158  0.37974039     0.05700
C3180       C  0.11720567  0.49418608  0.37723368    -0.02800
Br3181     Br  0.08966463  0.47646868  0.37204030    -0.02500
H3182       H  0.09788470  0.52593409  0.37633812     0.09700
H3183       H  0.17569335  0.49111520  0.38475144     0.07700
Br3184     Br  0.18402977  0.54054039  0.38550060    -0.02900
C3185       C  0.24409269  0.65267149  0.37496461    -0.09600
C3186       C  0.22796020  0.63507135  0.38024120     0.06600
C3187       C  0.23634397  0.61430871  0.38980001    -0.03300
C3188       C  0.26024839  0.61068230  0.39211770    -0.07800
C3189       C  0.27663439  0.62765373  0.38556833     0.05700
C3190       C  0.26812769  0.64933480  0.37790157    -0.02800
Br3191     Br  0.28789030  0.67535273  0.37221270    -0.02500
H3192       H  0.23796327  0.66910066  0.36811677     0.09700
H3193       H  0.26598551  0.59400773  0.39868547     0.07700
Br3194     Br  0.21619427  0.58958174  0.39841962    -0.02900
C3195       C  0.22467152  0.64846970  0.22064622    -0.09600
C3196       C  0.24464546  0.63469422  0.22005161     0.06600
C3197       C  0.24953795  0.61918906  0.23829216    -0.03300
C3198       C  0.23340828  0.61641834  0.25614109    -0.07800
C3199       C  0.21304101  0.62969492  0.25625232     0.05700
C3200       C  0.20916472  0.64653900  0.23896602    -0.02800
Br3201     Br  0.18337817  0.66775153  0.24000509    -0.02500
H3202       H  0.22133222  0.66100589  0.20699555     0.09700
H3203       H  0.23662007  0.60381166  0.26974533     0.07700
Br3204     Br  0.27748613  0.60104999  0.23902328    -0.02900
C3205       C  0.11021924  0.52089489  0.26551593    -0.09600
C3206       C  0.13013616  0.53446397  0.26807680     0.06600
C3207       C  0.14864340  0.53174022  0.25241305    -0.03300
C3208       C  0.14615203  0.51717454  0.23331434    -0.07800
C3209       C  0.12538704  0.50521641  0.22950747     0.05700
C3210       C  0.10756349  0.50648335  0.24625659    -0.02800
Br3211     Br  0.07789369  0.49198869  0.24237869    -0.02500
H3212       H  0.09575852  0.52311450  0.27729064     0.09700
H3213       H  0.16018589  0.51591561  0.22089618     0.07700
Br3214     Br  0.17719565  0.54847838  0.25566100    -0.02900
C3215       C  0.00464184  0.64738937  0.23977020    -0.09600
C3216       C  0.99032449  0.62770800  0.23945365     0.06600
C3217       C  0.99304399  0.61079488  0.25701541    -0.03300
C3218       C  0.01177504  0.61240747  0.27233675    -0.07800
C3219       C  0.02775627  0.63061902  0.27052081     0.05700
C3220       C  0.02321799  0.64897488  0.25514730    -0.02800
Br3221     Br  0.04197609  0.67636739  0.25424727    -0.02500
H3222       H  0.00225781  0.66100621  0.22698344     0.09700
H3223       H  0.01471217  0.59846290  0.28462032     0.07700
Br3224     Br  0.97384882  0.58387609  0.25994931    -0.02900
C3225       C  0.13434343  0.75072536  0.23763832    -0.09600
C3226       C  0.11648461  0.75039692  0.22120930     0.06600
C3227       C  0.09742925  0.73560407  0.22428831    -0.03300
C3228       C  0.09761418  0.71989707  0.24262962    -0.07800
C3229       C  0.11659534  0.71862850  0.25782878     0.05700
C3230       C  0.13478269  0.73483867  0.25576441    -0.02800
Br3231     Br  0.16228868  0.73482010  0.27467712    -0.02500
H3232       H  0.14899524  0.76221969  0.23539729     0.09700
H3233       H  0.08328147  0.70798342  0.24443506     0.07700
Br3234     Br  0.07082340  0.73600839  0.20417429    -0.02900
C3235       C  0.12300617  0.76097085  0.01894450    -0.09600
C3236       C  0.14113637  0.76302822  0.03492624     0.06600
C3237       C  0.16089710  0.74893495  0.03267964    -0.03300
C3238       C  0.16065873  0.73063510  0.01704007    -0.07800
C3239       C  0.14113585  0.72648268  0.00325638     0.05700
C3240       C  0.12271279  0.74279031  0.00315837    -0.02800
Br3241     Br  0.09492992  0.74008614  0.98487725    -0.02500
H3242       H  0.10784770  0.77203664  0.02018119     0.09700
H3243       H  0.17525348  0.71893007  0.01661886     0.07700
Br3244     Br  0.18812106  0.75329142  0.05117369    -0.02900
C3245       C  0.25941270  0.74850912  0.14243741    -0.09600
C3246       C  0.26278623  0.73511925  0.12244423     0.06600
C3247       C  0.24964156  0.73983281  0.10246011    -0.03300
C3248       C  0.23110806  0.75528606  0.10377797    -0.07800
C3249       C  0.22549948  0.76606592  0.12478162     0.05700
C3250       C  0.24081697  0.76397617  0.14382748    -0.02800
Br3251     Br  0.23575127  0.77868877  0.17329786    -0.02500
H3252       H  0.26969751  0.74526124  0.15784804     0.09700
H3253       H  0.22013107  0.75770300  0.08877984     0.07700
Br3254     Br  0.25526352  0.72430740  0.07356411    -0.02900
C3255       C  0.01689755  0.75301870  0.14200249    -0.09600
C3256       C  0.03863485  0.74432993  0.13514973     0.06600
C3257       C  0.04196806  0.72022353  0.13296484    -0.03300
C3258       C  0.02413463  0.70529794  0.13867561    -0.07800
C3259       C  0.00268988  0.71376024  0.14635541     0.05700
C3260       C  0.99881531  0.73781683  0.14748576    -0.02800
Br3261     Br  0.96947135  0.75043318  0.15683543    -0.02500
H3262       H  0.01411191  0.77155252  0.14346756     0.09700
H3263       H  0.02695523  0.68684523  0.13646083     0.07700
Br3264     Br  0.06965710  0.70621903  0.12062558    -0.02900
C3265       C  0.61727789  0.24155763  0.35431241    -0.09600
C3266       C  0.61638808  0.22547398  0.37288276     0.06600
C3267       C  0.61522572  0.23438915  0.39561100    -0.03300
C3268       C  0.61484966  0.25856007  0.39922653    -0.07800
C3269       C  0.61564534  0.27455064  0.38064345     0.05700
C3270       C  0.61666926  0.26568498  0.35798099    -0.02800
Br3271     Br  0.61494437  0.28573955  0.33145968    -0.02500
H3272       H  0.61803283  0.23531642  0.33661250     0.09700
H3273       H  0.61322528  0.26498139  0.41680614     0.07700
Br3274     Br  0.61470949  0.21474895  0.42245924    -0.02900
C3275       C  0.49109414  0.15688966  0.37715192    -0.09600
C3276       C  0.47418204  0.13908662  0.37757017     0.06600
C3277       C  0.48199091  0.11596475  0.37757744    -0.03300
C3278       C  0.50593168  0.11116646  0.37694446    -0.07800
C3279       C  0.52264264  0.12902882  0.37676168     0.05700
C3280       C  0.51492895  0.15209599  0.37713287    -0.02800
Br3281     Br  0.53610375  0.17769709  0.37595286    -0.02500
H3282       H  0.48586936  0.17492606  0.37667502     0.09700
H3283       H  0.51157888  0.09324062  0.37613542     0.07700
Br3284     Br  0.46096075  0.09039021  0.37902235    -0.02900
C3285       C  0.59699732  0.23471107  0.22776054    -0.09600
C3286       C  0.61655652  0.24875627  0.22573432     0.06600
C3287       C  0.63482765  0.24627006  0.24183956    -0.03300
C3288       C  0.63376493  0.22855433  0.25815159    -0.07800
C3289       C  0.61485491  0.21334551  0.25872676     0.05700
C3290       C  0.59584241  0.21711131  0.24405892    -0.02800
Br3291     Br  0.56822439  0.19880203  0.24566943    -0.02500
H3292       H  0.58227424  0.23691977  0.21545636     0.09700
H3293       H  0.64858100  0.22585640  0.26954879     0.07700
Br3294     Br  0.66276206  0.26433569  0.24121434    -0.02900
C3295       C  0.73248436  0.10458449  0.22296132    -0.09600
C3296       C  0.75092637  0.11993922  0.22654542     0.06600
C3297       C  0.75268578  0.13142218  0.24811871    -0.03300
C3298       C  0.73486168  0.12908721  0.26433080    -0.07800
C3299       C  0.71499400  0.11597046  0.25939265     0.05700
C3300       C  0.71450707  0.10267222  0.23884225    -0.02800
Br3301     Br  0.68962111  0.08254076  0.22994513    -0.02500
H3302       H  0.73123891  0.09490774  0.20690191     0.09700
H3303       H  0.73604678  0.13887945  0.28026313     0.07700
Br3304     Br  0.77715615  0.15221134  0.25650329    -0.02900
C3305       C  0.49258613  0.10876049  0.24443767    -0.09600
C3306       C  0.49328801  0.12603239  0.22723380     0.06600
C3307       C  0.50963769  0.14395840  0.22907415    -0.03300
C3308       C  0.52658204  0.14285957  0.24613204    -0.07800
C3309       C  0.52778546  0.12412812  0.26157032     0.05700
C3310       C  0.50969841  0.10768377  0.26169037    -0.02800
Br3311     Br  0.50832838  0.08232173  0.28325825    -0.02500
H3312       H  0.47973450  0.09515106  0.24357146     0.09700
H3313       H  0.53961282  0.15627050  0.24656647     0.07700
Br3314     Br  0.51037231  0.17016131  0.20853270    -0.02900
C3315       C  0.64413468  0.00599318  0.23281444    -0.09600
C3316       C  0.62183505  0.99865739  0.22677696     0.06600
C3317       C  0.60298257  0.00340508  0.24153301    -0.03300
C3318       C  0.60634205  0.01742736  0.26083705    -0.07800
C3319       C  0.62822563  0.02676932  0.26550468     0.05700
C3320       C  0.64748169  0.01977008  0.25234443    -0.02800
Br3321     Br  0.67838965  0.02888695  0.26033844    -0.02500
H3322       H  0.65882451  0.00145792  0.22203476     0.09700
H3323       H  0.59139679  0.02274266  0.27091367     0.07700
Br3324     Br  0.57177079  0.99419518  0.23455362    -0.02900
C3325       C  0.11652861  0.24969354  0.40361238    -0.09600
C3326       C  0.12251775  0.23374877  0.38583686     0.06600
C3327       C  0.12973926  0.24298473  0.36440520    -0.03300
C3328       C  0.13214289  0.26716860  0.36177096    -0.07800
C3329       C  0.12727363  0.28286742  0.38001524     0.05700
C3330       C  0.11881823  0.27378481  0.40090976    -0.02800
Br3331     Br  0.11222679  0.29319143  0.42708842    -0.02500
H3332       H  0.11055848  0.24346133  0.42026316     0.09700
H3333       H  0.13852513  0.27375771  0.34537741     0.07700
Br3334     Br  0.13599432  0.22391348  0.33794683    -0.02900
C3335       C  0.23744759  0.11624761  0.38495504    -0.09600
C3336       C  0.22271577  0.13591928  0.38531419     0.06600
C3337       C  0.23294815  0.15794155  0.38589795    -0.03300
C3338       C  0.25717346  0.15997347  0.38605184    -0.07800
C3339       C  0.27196894  0.14034695  0.38595575     0.05700
C3340       C  0.26176924  0.11826467  0.38522667    -0.02800
Br3341     Br  0.28005474  0.09048054  0.38400011    -0.02500
H3342       H  0.22990655  0.09907110  0.38542936     0.09700
H3343       H  0.26455255  0.17721696  0.38643343     0.07700
Br3344     Br  0.21465966  0.18566003  0.38864422    -0.02900
C3345       C  0.14942139  0.23418232  0.50939498    -0.09600
C3346       C  0.12817404  0.22907692  0.49882485     0.06600
C3347       C  0.10799479  0.24138217  0.50523199    -0.03300
C3348       C  0.10925246  0.25758772  0.52297793    -0.07800
C3349       C  0.13009282  0.26119938  0.53485559     0.05700
C3350       C  0.15050961  0.25019458  0.52740511    -0.02800
Br3351     Br  0.17998669  0.25603566  0.54160761    -0.02500
H3352       H  0.16496666  0.22481524  0.50442733     0.09700
H3353       H  0.09342835  0.26590482  0.52883413     0.07700
Br3354     Br  0.07754144  0.23450920  0.49358992    -0.02900
C3355       C  0.24312443  0.15383333  0.53208407    -0.09600
C3356       C  0.25509710  0.13260754  0.53326981     0.06600
C3357       C  0.25097492  0.11564789  0.51620364    -0.03300
C3358       C  0.23329438  0.11922335  0.50001668    -0.07800
C3359       C  0.21957352  0.13940238  0.50058105     0.05700
C3360       C  0.22564180  0.15747776  0.51570903    -0.02800
Br3361     Br  0.21082340  0.18734761  0.51465681    -0.02500
H3362       H  0.24673689  0.16728545  0.54463708     0.09700
H3363       H  0.22917576  0.10534222  0.48808232     0.07700
Br3364     Br  0.26633511  0.08607445  0.51567328    -0.02900
C3365       C  0.00499907  0.15176350  0.53213337    -0.09600
C3366       C  0.99831914  0.13052289  0.54174498     0.06600
C3367       C  0.00908402  0.10986012  0.53452867    -0.03300
C3368       C  0.02634730  0.11069922  0.51762562    -0.07800
C3369       C  0.03325570  0.13199877  0.50827172     0.05700
C3370       C  0.02274789  0.15271321  0.51584756    -0.02800
Br3371     Br  0.03397109  0.18280316  0.50711567    -0.02500
H3372       H  0.99741152  0.16779207  0.53840689     0.09700
H3373       H  0.03474547  0.09479113  0.51213447     0.07700
Br3374     Br  0.00102225  0.08032702  0.54752955    -0.02900
C3375       C  0.10377213  0.02016288  0.53717606    -0.09600
C3376       C  0.12496223  0.00912988  0.54163890     0.06600
C3377       C  0.14408184  0.01340903  0.52706551    -0.03300
C3378       C  0.14203269  0.02987548  0.50937983    -0.07800
C3379       C  0.12132165  0.04235824  0.50631407     0.05700
C3380       C  0.10176488  0.03668587  0.51966216    -0.02800
Br3381     Br  0.07201825  0.05101529  0.51491436    -0.02500
H3382       H  0.08886456  0.01636287  0.54782574     0.09700
H3383       H  0.15719412  0.03415965  0.49917970     0.07700
Br3384     Br  0.17410848  0.99982087  0.53219377    -0.02900
C3385       C  0.88451276  0.76826862  0.63533375    -0.09600
C3386       C  0.86783808  0.78036076  0.62212014     0.06600
C3387       C  0.85145586  0.76726288  0.60960563    -0.03300
C3388       C  0.85088756  0.74292736  0.61178747    -0.07800
C3389       C  0.86710053  0.73081288  0.62562813     0.05700
C3390       C  0.88413774  0.74386151  0.63725053    -0.02800
Br3391     Br  0.90665078  0.72897290  0.65672711    -0.02500
H3392       H  0.89809576  0.77784733  0.64402449     0.09700
H3393       H  0.83714533  0.73343509  0.60323854     0.07700
Br3394     Br  0.82973423  0.78195723  0.58898165    -0.02900
C3395       C  0.75711407  0.89867612  0.62387021    -0.09600
C3396       C  0.77237535  0.87945016  0.62266676     0.06600
C3397       C  0.76284929  0.85713898  0.62198282    -0.03300
C3398       C  0.73879034  0.85429258  0.62321869    -0.07800
C3399       C  0.72344990  0.87336977  0.62501221     0.05700
C3400       C  0.73288727  0.89581083  0.62518525    -0.02800
Br3401     Br  0.71362157  0.92283249  0.62783657    -0.02500
H3402       H  0.76410061  0.91608073  0.62328639     0.09700
H3403       H  0.73198237  0.83683429  0.62274573     0.07700
Br3404     Br  0.78181241  0.83013726  0.61727246    -0.02900
C3405       C  0.98095302  0.90003503  0.64057562    -0.09600
C3406       C  0.97387774  0.88315749  0.62479341     0.06600
C3407       C  0.99153492  0.86965070  0.61368920    -0.03300
C3408       C  0.01511699  0.87457121  0.61711208    -0.07800
C3409       C  0.02221090  0.89224429  0.63197409     0.05700
C3410       C  0.00459898  0.90446040  0.64455799    -0.02800
Br3411     Br  0.01056469  0.92718010  0.66815795    -0.02500
H3412       H  0.96799468  0.91014796  0.64969407     0.09700
H3413       H  0.02802678  0.86451760  0.60786812     0.07700
Br3414     Br  0.98571007  0.84343421  0.59393696    -0.02900
C3415       C  0.85650228  0.99753228  0.62320209    -0.09600
C3416       C  0.87475808  0.98107738  0.62369661     0.06600
C3417       C  0.89755480  0.98919854  0.62551085    -0.03300
C3418       C  0.90175497  0.01307823  0.62671766    -0.07800
C3419       C  0.88359961  0.02969348  0.62659643     0.05700
C3420       C  0.86068652  0.02156265  0.62481514    -0.02800
Br3421     Br  0.83459043  0.04225031  0.62497944    -0.02500
H3422       H  0.83881661  0.99163369  0.62109081     0.09700
H3423       H  0.91964210  0.01861727  0.62752741     0.07700
Br3424     Br  0.92373563  0.96858327  0.62439987    -0.02900
C3425       C  0.86865582  0.09356907  0.26520998    -0.09600
C3426       C  0.86952134  0.11299576  0.28014359     0.06600
C3427       C  0.86876488  0.13523718  0.27014080    -0.03300
C3428       C  0.86744709  0.13759264  0.24585906    -0.07800
C3429       C  0.86702982  0.11809839  0.23100262     0.05700
C3430       C  0.86739243  0.09592475  0.24103384    -0.02800
Br3431     Br  0.86405078  0.06836093  0.22278409    -0.02500
H3432       H  0.86879994  0.07619832  0.27239550     0.09700
H3433       H  0.86638207  0.15486739  0.23849024     0.07700
Br3434     Br  0.87024875  0.16279140  0.28862903    -0.02900
C3435       C  0.73705766  0.11833266  0.35188505    -0.09600
C3436       C  0.72322114  0.12078799  0.37195958     0.06600
C3437       C  0.73432598  0.12354244  0.39347523    -0.03300
C3438       C  0.75867127  0.12315051  0.39462314    -0.07800
C3439       C  0.77238512  0.12057291  0.37452408     0.05700
C3440       C  0.76130196  0.11821864  0.35300668    -0.02800
Br3441     Br  0.77842830  0.11306632  0.32495140    -0.02500
H3442       H  0.72891141  0.11649976  0.33504149     0.09700
H3443       H  0.76700237  0.12440705  0.41143160     0.07700
Br3444     Br  0.71723866  0.12903685  0.42142184    -0.02900
C3445       C  0.00586647  0.12740729  0.41059126    -0.09600
C3446       C  0.02121652  0.12603288  0.39148696     0.06600
C3447       C  0.01150004  0.12492851  0.36910641    -0.03300
C3448       C  0.98724002  0.12562500  0.36632080    -0.07800
C3449       C  0.97197160  0.12674288  0.38547216     0.05700
C3450       C  0.98167916  0.12734470  0.40778581    -0.02800
Br3451     Br  0.96274889  0.12515415  0.43497401    -0.02500
H3452       H  0.01274805  0.12797822  0.42807965     0.09700
H3453       H  0.98014023  0.12388653  0.34899744     0.07700
Br3454     Br  0.03014338  0.12208841  0.34178220    -0.02900
C3455       C  0.85702774  0.11715257  0.49749959    -0.09600
C3456       C  0.87327027  0.12611466  0.48144262     0.06600
C3457       C  0.89293352  0.13730774  0.49040046    -0.03300
C3458       C  0.89641549  0.13830215  0.51450600    -0.07800
C3459       C  0.88061216  0.12856477  0.53063675     0.05700
C3460       C  0.86040496  0.11826568  0.52163369    -0.02800
Br3461     Br  0.83648769  0.10542718  0.54068596    -0.02500
H3462       H  0.84150902  0.10869222  0.49122294     0.09700
H3463       H  0.91206008  0.14665502  0.52057018     0.07700
Br3464     Br  0.91632903  0.15073346  0.47112104    -0.02900
C3465       C  0.86598843  0.99324830  0.51508780    -0.09600
C3466       C  0.88321510  0.97624287  0.51208013     0.06600
C3467       C  0.90185552  0.98081808  0.49704764    -0.03300
C3468       C  0.90073394  0.00003501  0.48245567    -0.07800
C3469       C  0.88139733  0.01488886  0.48264452     0.05700
C3470       C  0.86496008  0.01266163  0.50063633    -0.02800
Br3471     Br  0.83948214  0.03356259  0.50558738    -0.02500
H3472       H  0.85219557  0.99063716  0.52755041     0.09700
H3473       H  0.91423826  0.00234886  0.46960630     0.07700
Br3474     Br  0.92913830  0.96175870  0.49521308    -0.02900
C3475       C  0.09905315  0.88514130  0.26579616    -0.09600
C3476       C  0.11558615  0.87710946  0.28226496     0.06600
C3477       C  0.13555189  0.86586509  0.27381704    -0.03300
C3478       C  0.13800956  0.86213556  0.24988082    -0.07800
C3479       C  0.12084678  0.86908066  0.23368941     0.05700
C3480       C  0.10149479  0.88126341  0.24192072    -0.02800
Br3481     Br  0.07705480  0.89152699  0.22170423    -0.02500
H3482       H  0.08357875  0.89415729  0.27143250     0.09700
H3483       H  0.15347890  0.85327084  0.24396899     0.07700
Br3484     Br  0.16028829  0.85532867  0.29345402    -0.02900
C3485       C  0.10920769  0.76623501  0.39802040    -0.09600
C3486       C  0.11810142  0.78347897  0.38297882     0.06600
C3487       C  0.13380478  0.77648316  0.36576101    -0.03300
C3488       C  0.13837862  0.75276110  0.36246448    -0.07800
C3489       C  0.12760279  0.73523227  0.37599780     0.05700
C3490       C  0.11385366  0.74249756  0.39479888    -0.02800
Br3491     Br  0.10047573  0.72112657  0.41645111    -0.02500
H3492       H  0.09802560  0.77109641  0.41227088     0.09700
H3493       H  0.15016545  0.74827640  0.34865096     0.07700
Br3494     Br  0.14844890  0.79822438  0.34525759    -0.02900
C3495       C  0.09672927  0.99969535  0.38746251    -0.09600
C3496       C  0.11565634  0.98401246  0.38810017     0.06600
C3497       C  0.13821100  0.99311787  0.38828467    -0.03300
C3498       C  0.14137152  0.01728530  0.38868566    -0.07800
C3499       C  0.12237397  0.03282771  0.38839882     0.05700
C3500       C  0.09989648  0.02375861  0.38753171    -0.02800
Br3501     Br  0.07297895  0.04343216  0.38840124    -0.02500
H3502       H  0.07915285  0.99317504  0.38702537     0.09700
H3503       H  0.15884200  0.02403672  0.38977916     0.07700
Br3504     Br  0.16510814  0.97356980  0.38686770    -0.02900
C3505       C  0.97939747  0.00999050  0.37422731    -0.09600
C3506       C  0.96963949  0.01324455  0.39625892     0.06600
C3507       C  0.97817406  0.00072455  0.41537603    -0.03300
C3508       C  0.99535116  0.98401863  0.41186496    -0.07800
C3509       C  0.00386449  0.97972066  0.38950453     0.05700
C3510       C  0.99608087  0.99305020  0.37060503    -0.02800
Br3511     Br  0.00426436  0.98642553  0.33897912    -0.02500
H3512       H  0.97259540  0.01920296  0.35927665     0.09700
H3513       H  0.00130167  0.97361327  0.42638139     0.07700
Br3514     Br  0.96642515  0.00529805  0.44616568    -0.02900
C3515       C  0.11196582  0.86741002  0.49925079    -0.09600
C3516       C  0.11430109  0.88542493  0.48274279     0.06600
C3517       C  0.11993186  0.90766392  0.49067750    -0.03300
C3518       C  0.12228142  0.91170143  0.51451198    -0.07800
C3519       C  0.11997715  0.89379279  0.53122843     0.05700
C3520       C  0.11513390  0.87129804  0.52318147    -0.02800
Br3521     Br  0.11366511  0.84520756  0.54376690    -0.02500
H3522       H  0.10753167  0.85011881  0.49347222     0.09700
H3523       H  0.12566589  0.92933023  0.51985558     0.07700
Br3524     Br  0.12298032  0.93358783  0.46997092    -0.02900
C3525       C  0.99282185  0.86851052  0.48156319    -0.09600
C3526       C  0.99892660  0.89018962  0.47253271     0.06600
C3527       C  0.98976695  0.91057948  0.48221131    -0.03300
C3528       C  0.97406054  0.90893438  0.50048384    -0.07800
C3529       C  0.96722009  0.88718335  0.50880615     0.05700
C3530       C  0.97667372  0.86680723  0.49928305    -0.02800
Br3531     Br  0.96579902  0.83631026  0.50710789    -0.02500
H3532       H  0.99942597  0.85274345  0.47372350     0.09700
H3533       H  0.96644807  0.92458115  0.50758888     0.07700
Br3534     Br  0.99780115  0.94077133  0.47082417    -0.02900
C3535       C  0.74491092  0.87331590  0.49207881    -0.09600
C3536       C  0.74889764  0.85735558  0.47402945     0.06600
C3537       C  0.76818345  0.84230612  0.47576157    -0.03300
C3538       C  0.78453654  0.84587218  0.49306496    -0.07800
C3539       C  0.78250525  0.86445771  0.50854855     0.05700
C3540       C  0.76154679  0.87704373  0.50929482    -0.02800
Br3541     Br  0.75510123  0.90066873  0.53182886    -0.02500
H3542       H  0.72961190  0.88426867  0.49192525     0.09700
H3543       H  0.79970111  0.83474419  0.49345481     0.07700
Br3544     Br  0.77448001  0.81696377  0.45534322    -0.02900
C3545       C  0.63044241  0.89210938  0.49984637    -0.09600
C3546       C  0.62886861  0.87367575  0.48376943     0.06600
C3547       C  0.62485179  0.85130310  0.49221289    -0.03300
C3548       C  0.62317422  0.84753502  0.51611288    -0.07800
C3549       C  0.62461267  0.86583026  0.53248906     0.05700
C3550       C  0.62805722  0.88842998  0.52393832    -0.02800
Br3551     Br  0.62952481  0.91470121  0.54417252    -0.02500
H3552       H  0.63416399  0.90944106  0.49362918     0.09700
H3553       H  0.62127553  0.82975492  0.52172069     0.07700
Br3554     Br  0.62383963  0.82487727  0.47199854    -0.02900
C3555       C  0.64946661  0.76031237  0.38179504    -0.09600
C3556       C  0.63071630  0.77558898  0.38649543     0.06600
C3557       C  0.60932802  0.76571019  0.39258859    -0.03300
C3558       C  0.60725305  0.74142047  0.39420924    -0.07800
C3559       C  0.62617581  0.72627680  0.38997194     0.05700
C3560       C  0.64740624  0.73610109  0.38351101    -0.02800
Br3561     Br  0.67463517  0.71745759  0.37893700    -0.02500
H3562       H  0.66622840  0.76722721  0.37716241     0.09700
H3563       H  0.59076770  0.73428055  0.39960241     0.07700
Br3564     Br  0.58235167  0.78426392  0.39845136    -0.02900
C3565       C  0.65721587  0.99368168  0.38287103    -0.09600
C3566       C  0.63892976  0.97762428  0.38548952     0.06600
C3567       C  0.61625261  0.98627471  0.38800931    -0.03300
C3568       C  0.61217060  0.01029465  0.38694754    -0.07800
C3569       C  0.63037862  0.02621162  0.38367036     0.05700
C3570       C  0.65312196  0.01766614  0.38191291    -0.02800
Br3571     Br  0.67879270  0.03789498  0.37593475    -0.02500
H3572       H  0.67488170  0.98753157  0.38102467     0.09700
H3573       H  0.59445918  0.01658178  0.38775075     0.07700
Br3574     Br  0.59040928  0.96624376  0.39354990    -0.02900
C3575       C  0.77209449  0.96153810  0.36429225    -0.09600
C3576       C  0.75329170  0.96227859  0.37964478     0.06600
C3577       C  0.74929099  0.98288159  0.39239534    -0.03300
C3578       C  0.76536925  0.00098145  0.39125266    -0.07800
C3579       C  0.78529576  0.99911828  0.37743277     0.05700
C3580       C  0.78783085  0.97964415  0.36289156    -0.02800
Br3581     Br  0.81230490  0.97612157  0.34066631    -0.02500
H3582       H  0.77519650  0.94650164  0.35360775     0.09700
H3583       H  0.76278756  0.01603208  0.40215676     0.07700
Br3584     Br  0.72315941  0.98754001  0.41248777    -0.02900
C3585       C  0.62629334  0.90932130  0.25100187    -0.09600
C3586       C  0.62160426  0.89005690  0.23664576     0.06600
C3587       C  0.61672861  0.86868192  0.24732453    -0.03300
C3588       C  0.61827112  0.86656391  0.27162792    -0.07800
C3589       C  0.62337374  0.88581289  0.28582150     0.05700
C3590       C  0.62687573  0.90742659  0.27523443    -0.02800
Br3591     Br  0.63360927  0.93462127  0.29309516    -0.02500
H3592       H  0.62920589  0.92621271  0.24328314     0.09700
H3593       H  0.61573904  0.84969430  0.27951713     0.07700
Br3594     Br  0.60621584  0.84260390  0.22970134    -0.02900
C3595       C  0.76078504  0.63353574  0.36696799    -0.09600
C3596       C  0.77585506  0.63319579  0.38638441     0.06600
C3597       C  0.76580028  0.63242008  0.40855138    -0.03300
C3598       C  0.74158530  0.63132374  0.41089239    -0.07800
C3599       C  0.72654190  0.63146599  0.39148157     0.05700
C3600       C  0.73649958  0.63286194  0.36932413    -0.02800
Br3601     Br  0.71788611  0.63345963  0.34180011    -0.02500
H3602       H  0.76799785  0.63507287  0.34968885     0.09700
H3603       H  0.73442758  0.63068115  0.42821090     0.07700
Br3604     Br  0.78396819  0.63511957  0.43616080    -0.02900
C3605       C  0.76535332  0.75302641  0.40301284    -0.09600
C3606       C  0.77400536  0.74364276  0.38236298     0.06600
C3607       C  0.76218020  0.74776716  0.36124640    -0.03300
C3608       C  0.74371723  0.76344118  0.36082187    -0.07800
C3609       C  0.73689674  0.77472945  0.38114086     0.05700
C3610       C  0.74649192  0.76814734  0.40251287    -0.02800
Br3611     Br  0.73419021  0.77965147  0.43113169    -0.02500
H3612       H  0.77376668  0.74922348  0.41941605     0.09700
H3613       H  0.73613491  0.76837062  0.34431295     0.07700
Br3614     Br  0.77213870  0.73544093  0.33194757    -0.02900
C3615       C  0.87699093  0.74722936  0.49685623    -0.09600
C3616       C  0.86012346  0.74926587  0.47943147     0.06600
C3617       C  0.84493517  0.76841534  0.47964962    -0.03300
C3618       C  0.84890855  0.78654541  0.49505735    -0.07800
C3619       C  0.86767222  0.78583047  0.51056886     0.05700
C3620       C  0.88117536  0.76533572  0.51218827    -0.02800
Br3621     Br  0.90766816  0.76114710  0.53201999    -0.02500
H3622       H  0.88852056  0.73241134  0.49742992     0.09700
H3623       H  0.83777334  0.80171685  0.49424390     0.07700
Br3624     Br  0.81899739  0.77115321  0.45892133    -0.02900
C3625       C  0.89124482  0.64073327  0.50198675    -0.09600
C3626       C  0.87360726  0.63428182  0.48614762     0.06600
C3627       C  0.85279887  0.62578456  0.49529142    -0.03300
C3628       C  0.84964250  0.62467677  0.51935457    -0.07800
C3629       C  0.86693274  0.63158954  0.53539273     0.05700
C3630       C  0.88823023  0.63924074  0.52625609    -0.02800
Br3631     Br  0.91400801  0.64720244  0.54559414    -0.02500
H3632       H  0.90752683  0.64732639  0.49540738     0.09700
H3633       H  0.83304747  0.61852689  0.52543368     0.07700
Br3634     Br  0.82723749  0.61697996  0.47614286    -0.02900
C3635       C  0.99337394  0.66266107  0.38827675    -0.09600
C3636       C  0.97819165  0.64384269  0.38401389     0.06600
C3637       C  0.98824643  0.62200035  0.37952363    -0.03300
C3638       C  0.01249767  0.61965425  0.37860896    -0.07800
C3639       C  0.02759152  0.63857747  0.38221083     0.05700
C3640       C  0.01766489  0.66024993  0.38740929    -0.02800
Br3641     Br  0.03611888  0.68748631  0.39173650    -0.02500
H3642       H  0.98631908  0.67969507  0.39196614     0.09700
H3643       H  0.01967241  0.60272899  0.37462432     0.07700
Br3644     Br  0.97032694  0.59441192  0.37534586    -0.02900
C3645       C  0.98123395  0.75660568  0.38123494    -0.09600
C3646       C  0.95785652  0.76344446  0.38245545     0.06600
C3647       C  0.95202729  0.78716311  0.37972628    -0.03300
C3648       C  0.96937107  0.80325621  0.37621429    -0.07800
C3649       C  0.99272537  0.79665527  0.37533382     0.05700
C3650       C  0.99869805  0.77305790  0.37758709    -0.02800
Br3651     Br  0.03015129  0.76246182  0.37493896    -0.02500
H3652       H  0.98591089  0.73846094  0.38287791     0.09700
H3653       H  0.96434369  0.82132099  0.37511340     0.07700
Br3654     Br  0.92120727  0.80004829  0.38211095    -0.02900
C3655       C  0.89696206  0.64695582  0.27141674    -0.09600
C3656       C  0.88290838  0.63320260  0.28578375     0.06600
C3657       C  0.86780389  0.61722259  0.27515629    -0.03300
C3658       C  0.86706503  0.61521495  0.25078214    -0.07800
C3659       C  0.88079679  0.62938112  0.23645190     0.05700
C3660       C  0.89628659  0.64491837  0.24715399    -0.02800
Br3661     Br  0.91744897  0.66328685  0.22928562    -0.02500
H3662       H  0.90807237  0.65995242  0.27913134     0.09700
H3663       H  0.85599643  0.60223578  0.24299694     0.07700
Br3664     Br  0.84724904  0.59847353  0.29326612    -0.02900
C3665       C  0.88073083  0.98853267  0.13198116    -0.09600
C3666       C  0.86206853  0.97336883  0.13623173     0.06600
C3667       C  0.83993418  0.98295645  0.13974449    -0.03300
C3668       C  0.83673020  0.00706287  0.13851485    -0.07800
C3669       C  0.85535529  0.02232342  0.13421925     0.05700
C3670       C  0.87754764  0.01272337  0.13080025    -0.02800
Br3671     Br  0.90378747  0.03164953  0.12353812    -0.02500
H3672       H  0.89806574  0.98149467  0.13003178     0.09700
H3673       H  0.81945527  0.01397190  0.14125402     0.07700
Br3674     Br  0.81402657  0.96416051  0.14852612    -0.02900
C3675       C  0.98739795  0.88627421  0.14461713    -0.09600
C3676       C  0.97191356  0.86751867  0.14200059     0.06600
C3677       C  0.98137914  0.84526296  0.13868469    -0.03300
C3678       C  0.00558238  0.84234526  0.13730694    -0.07800
C3679       C  0.02109135  0.86115730  0.13979740     0.05700
C3680       C  0.01157764  0.88334555  0.14370968    -0.02800
Br3681     Br  0.03020819  0.91057384  0.14722986    -0.02500
H3682       H  0.98059455  0.90353458  0.14772185     0.09700
H3683       H  0.01234978  0.82500123  0.13462305     0.07700
Br3684     Br  0.96242670  0.81804010  0.13818856    -0.02900
C3685       C  0.89176945  0.98609370  0.25872182    -0.09600
C3686       C  0.87143363  0.97336697  0.25514852     0.06600
C3687       C  0.85233746  0.97680232  0.26992055    -0.03300
C3688       C  0.85446090  0.99120782  0.28916785    -0.07800
C3689       C  0.87538388  0.00243493  0.29390161     0.05700
C3690       C  0.89392773  0.00057859  0.27802186    -0.02800
Br3691     Br  0.92353516  0.01486227  0.28314593    -0.02500
H3692       H  0.90664819  0.98336731  0.24759021     0.09700
H3693       H  0.83986521  0.99325864  0.30075698     0.07700
Br3694     Br  0.82321958  0.96159510  0.26488763    -0.02900
C3695       C  0.99176835  0.85992974  0.28292754    -0.09600
C3696       C  0.00392322  0.88082469  0.28512754     0.06600
C3697       C  0.00023254  0.89882076  0.26891404    -0.03300
C3698       C  0.98316024  0.89625087  0.25205980    -0.07800
C3699       C  0.96944451  0.87626604  0.25142562     0.05700
C3700       C  0.97462090  0.85750208  0.26609350    -0.02800
Br3701     Br  0.95841150  0.82858771  0.26406866    -0.02500
H3702       H  0.99484940  0.84586743  0.29506914     0.09700
H3703       H  0.97927529  0.91079833  0.24076522     0.07700
Br3704     Br  0.01479333  0.92867236  0.27076466    -0.02900
C3705       C  0.90150505  0.78577080  0.27615329    -0.09600
C3706       C  0.88252731  0.78715833  0.26098993     0.06600
C3707       C  0.86619779  0.76889671  0.26060226    -0.03300
C3708       C  0.86774825  0.75129200  0.27709889    -0.07800
C3709       C  0.88510410  0.75165667  0.29404984     0.05700
C3710       C  0.90305564  0.76804902  0.29251422    -0.02800
Br3711     Br  0.92985613  0.76733702  0.31237199    -0.02500
H3712       H  0.91477079  0.79898849  0.27589716     0.09700
H3713       H  0.85411570  0.73843942  0.27788835     0.07700
Br3714     Br  0.83971421  0.76780271  0.24034130    -0.02900
C3715       C  0.86037371  0.75531259  0.16036618    -0.09600
C3716       C  0.87067167  0.77255464  0.14604159     0.06600
C3717       C  0.88274815  0.76488836  0.12627568    -0.03300
C3718       C  0.88571051  0.74099164  0.12235092    -0.07800
C3719       C  0.87727614  0.72398764  0.13794280     0.05700
C3720       C  0.86366699  0.73146584  0.15660527    -0.02800
Br3721     Br  0.85087915  0.71013236  0.17870196    -0.02500
H3722       H  0.85013997  0.76000864  0.17527297     0.09700
H3723       H  0.89566924  0.73573470  0.10733635     0.07700
Br3724     Br  0.89664602  0.78585713  0.10455030    -0.02900
C3725       C  0.74392679  0.86909908  0.27105056    -0.09600
C3726       C  0.74296904  0.88586716  0.28849912     0.06600
C3727       C  0.75868097  0.90441199  0.28821304    -0.03300
C3728       C  0.77702332  0.90426457  0.27254731    -0.07800
C3729       C  0.77970578  0.88599032  0.25678640     0.05700
C3730       C  0.76205413  0.86899415  0.25507946    -0.02800
Br3731     Br  0.76218631  0.84367291  0.23337177    -0.02500
H3732       H  0.73161862  0.85495716  0.27091678     0.09700
H3733       H  0.78968603  0.91805095  0.27331458     0.07700
Br3734     Br  0.75597453  0.93009537  0.30909618    -0.02900
C3735       C  0.75378348  0.85989477  0.15172720    -0.09600
C3736       C  0.77038438  0.87534655  0.14251513     0.06600
C3737       C  0.76214794  0.89444065  0.12971792    -0.03300
C3738       C  0.73807359  0.89851708  0.12786290    -0.07800
C3739       C  0.72135768  0.88391133  0.13855411     0.05700
C3740       C  0.72978702  0.86399889  0.15014418    -0.02800
Br3741     Br  0.71024933  0.84179029  0.16510349    -0.02500
H3742       H  0.75948646  0.84458197  0.16104365     0.09700
H3743       H  0.73251298  0.91377475  0.11836460     0.07700
Br3744     Br  0.78284050  0.91624561  0.11562539    -0.02900
C3745       C  0.75891712  0.60509710  0.88858396    -0.09600
C3746       C  0.77523636  0.62100337  0.87930396     0.06600
C3747       C  0.76629798  0.64097886  0.86823144    -0.03300
C3748       C  0.74212424  0.64399778  0.86593735    -0.07800
C3749       C  0.72597325  0.62766610  0.87457683     0.05700
C3750       C  0.73480296  0.60831387  0.88652643    -0.02800
Br3751     Br  0.71494191  0.58504707  0.89943091    -0.02500
H3752       H  0.76483504  0.58961888  0.89748472     0.09700
H3753       H  0.73593720  0.65939991  0.85708561     0.07700
Br3754     Br  0.78558023  0.66513056  0.85617875    -0.02900
C3755       C  0.88683655  0.62059422  0.76780888    -0.09600
C3756       C  0.86914731  0.62041700  0.78471591     0.06600
C3757       C  0.84601269  0.62197332  0.77725779    -0.03300
C3758       C  0.84100108  0.62412801  0.75350990    -0.07800
C3759       C  0.85867910  0.62476921  0.73654081     0.05700
C3760       C  0.88185803  0.62291186  0.74401457    -0.02800
Br3761     Br  0.90739398  0.62452473  0.72281356    -0.02500
H3762       H  0.90475668  0.61871138  0.77317799     0.09700
H3763       H  0.82298133  0.62514620  0.74829882     0.07700
Br3764     Br  0.82062802  0.61938701  0.79857770    -0.02900
C3765       C  0.99593936  0.60566735  0.87940210    -0.09600
C3766       C  0.97807293  0.62038934  0.88793791     0.06600
C3767       C  0.98496109  0.64015861  0.90046329    -0.03300
C3768       C  0.00862969  0.64370829  0.90551138    -0.07800
C3769       C  0.02611350  0.62819048  0.89786661     0.05700
C3770       C  0.01943954  0.60941766  0.88401673    -0.02800
Br3771     Br  0.04127605  0.58726313  0.87192028    -0.02500
H3772       H  0.99209266  0.59054747  0.86920910     0.09700
H3773       H  0.01332225  0.65880252  0.91558289     0.07700
Br3774     Br  0.96317000  0.66311536  0.91071409    -0.02900
C3775       C  0.86854944  0.60941432  0.00240232    -0.09600
C3776       C  0.88252313  0.62090351  0.98573129     0.06600
C3777       C  0.89995509  0.63569934  0.99414518    -0.03300
C3778       C  0.90332025  0.63817703  0.01816455    -0.07800
C3779       C  0.89003328  0.62598199  0.03487377     0.05700
C3780       C  0.87207953  0.61176995  0.02648654    -0.02800
Br3781     Br  0.85202027  0.59466379  0.04669969    -0.02500
H3782       H  0.85477126  0.59804539  0.99673738     0.09700
H3783       H  0.91693346  0.64976956  0.02349757     0.07700
Br3784     Br  0.92083937  0.65229633  0.97438392    -0.02900
C3785       C  0.89173113  0.25800967  0.12557915    -0.09600
C3786       C  0.87257148  0.27342866  0.12585556     0.06600
C3787       C  0.85019765  0.26384134  0.12519794    -0.03300
C3788       C  0.84744082  0.23962530  0.12458557    -0.07800
C3789       C  0.86657837  0.22416649  0.12469935     0.05700
C3790       C  0.88894090  0.23373153  0.12525627    -0.02800
Br3791     Br  0.91607915  0.21456344  0.12719824    -0.02500
H3792       H  0.90915557  0.26495767  0.12561075     0.09700
H3793       H  0.82998184  0.23276109  0.12435548     0.07700
Br3794     Br  0.82281225  0.28277320  0.12381288    -0.02900
C3795       C  0.75679822  0.38577215  0.11495435    -0.09600
C3796       C  0.77424102  0.37367774  0.12761066     0.06600
C3797       C  0.76695126  0.36000455  0.14643753    -0.03300
C3798       C  0.74307922  0.35727818  0.15090073    -0.07800
C3799       C  0.72568167  0.36752398  0.13667548     0.05700
C3800       C  0.73299630  0.38251719  0.11895860    -0.02800
Br3801     Br  0.71155956  0.39739244  0.09818146    -0.02500
H3802       H  0.76139431  0.39744779  0.10106523     0.09700
H3803       H  0.73822285  0.34630341  0.16531234     0.07700
Br3804     Br  0.78851675  0.34354957  0.16581573    -0.02900
C3805       C  0.88775131  0.50737005  0.14262150    -0.09600
C3806       C  0.88393590  0.52399841  0.12494491     0.06600
C3807       C  0.87761728  0.51596194  0.10283392    -0.03300
C3808       C  0.87494260  0.49204707  0.09896352    -0.07800
C3809       C  0.87821729  0.47535978  0.11679952     0.05700
C3810       C  0.88494393  0.48345422  0.13881868    -0.02800
Br3811     Br  0.89007062  0.46299476  0.16459754    -0.02500
H3812       H  0.89304141  0.51302629  0.15973302     0.09700
H3813       H  0.87053393  0.48662253  0.08157568     0.07700
Br3814     Br  0.87404327  0.53646920  0.07684444    -0.02900
C3815       C  0.86655233  0.47752780  0.96611027    -0.09600
C3816       C  0.87335876  0.49920040  0.97466873     0.06600
C3817       C  0.87845368  0.50176469  0.99836669    -0.03300
C3818       C  0.87826660  0.48214009  0.01276890    -0.07800
C3819       C  0.87312818  0.46017702  0.00356974     0.05700
C3820       C  0.86634812  0.45812009  0.98026240    -0.02800
Br3821     Br  0.85563117  0.42965711  0.96674159    -0.02500
H3822       H  0.86166063  0.47553488  0.94806283     0.09700
H3823       H  0.88285653  0.48387127  0.03091766     0.07700
Br3824     Br  0.88705412  0.53113939  0.01125939    -0.02900
C3825       C  0.01095528  0.37826120  0.14953377    -0.09600
C3826       C  0.02438454  0.38669662  0.13093072     0.06600
C3827       C  0.01277204  0.39506622  0.11113118    -0.03300
C3828       C  0.98849456  0.39474739  0.11004522    -0.07800
C3829       C  0.97500271  0.38634521  0.12856401     0.05700
C3830       C  0.98654393  0.37762487  0.14829950    -0.02800
Br3831     Br  0.96974623  0.36370194  0.17334452    -0.02500
H3832       H  0.01948973  0.37270316  0.16536066     0.09700
H3833       H  0.98003743  0.40063073  0.09427909     0.07700
Br3834     Br  0.02943499  0.40812338  0.08549553    -0.02900
C3835       C  0.10886236  0.39064369  0.76773318    -0.09600
C3836       C  0.11780849  0.37373178  0.78330675     0.06600
C3837       C  0.12884041  0.35427113  0.77362558    -0.03300
C3838       C  0.12976208  0.35162690  0.74937775    -0.07800
C3839       C  0.12012474  0.36813177  0.73372756     0.05700
C3840       C  0.10998109  0.38814872  0.74344084    -0.02800
Br3841     Br  0.09753383  0.41296568  0.72506041    -0.02500
H3842       H  0.10051608  0.40606272  0.77451201     0.09700
H3843       H  0.13801320  0.33608042  0.74281639     0.07700
Br3844     Br  0.14209484  0.33008803  0.79220953    -0.02900
C3845       C  0.11184436  0.26055581  0.90054102    -0.09600
C3846       C  0.11416129  0.27678136  0.88226012     0.06600
C3847       C  0.11690387  0.26818848  0.85966519    -0.03300
C3848       C  0.11797059  0.24414778  0.85581291    -0.07800
C3849       C  0.11577025  0.22782022  0.87405601     0.05700
C3850       C  0.11250632  0.23642496  0.89668332    -0.02800
Br3851     Br  0.10928143  0.21642162  0.92304736    -0.02500
H3852       H  0.10891255  0.26674160  0.91803407     0.09700
H3853       H  0.12014695  0.23817111  0.83814168     0.07700
Br3854     Br  0.11669786  0.28834858  0.83323410    -0.02900
C3855       C  0.13103677  0.51195939  0.91059163    -0.09600
C3856       C  0.12182287  0.52821000  0.89452229     0.06600
C3857       C  0.11116191  0.51927393  0.87442183    -0.03300
C3858       C  0.10941164  0.49506048  0.87134844    -0.07800
C3859       C  0.11812269  0.47890758  0.88782477     0.05700
C3860       C  0.12931672  0.48788891  0.90749961    -0.02800
Br3861     Br  0.14138190  0.46875238  0.93178421    -0.02500
H3862       H  0.13947572  0.51790791  0.92625700     0.09700
H3863       H  0.10080254  0.48882083  0.85587451     0.07700
Br3864     Br  0.09888842  0.53867792  0.85031206    -0.02900
C3865       C  0.98356515  0.50621622  0.87223222    -0.09600
C3866       C  0.97009242  0.50747606  0.89239889     0.06600
C3867       C  0.97579232  0.49359072  0.91166011    -0.03300
C3868       C  0.99295007  0.47667644  0.90946269    -0.07800
C3869       C  0.00480202  0.47383191  0.88845361     0.05700
C3870       C  0.00082447  0.48947441  0.87001281    -0.02800
Br3871     Br  0.01549324  0.48717431  0.84017808    -0.02500
H3872       H  0.97945302  0.51702833  0.85737710     0.09700
H3873       H  0.99640863  0.46508043  0.92389512     0.07700
Br3874     Br  0.96076219  0.49696591  0.94115364    -0.02900
C3875       C  0.10875789  0.36516214  0.00319767    -0.09600
C3876       C  0.11668536  0.38140134  0.98655970     0.06600
C3877       C  0.12876976  0.40078668  0.99492471    -0.03300
C3878       C  0.13172365  0.40404539  0.01901483    -0.07800
C3879       C  0.12274190  0.38837727  0.03576491     0.05700
C3880       C  0.11148737  0.36841938  0.02726748    -0.02800
Br3881     Br  0.09933716  0.34461302  0.04696022    -0.02500
H3882       H  0.09987970  0.34968249  0.99750740     0.09700
H3883       H  0.14074798  0.41948580  0.02460240     0.07700
Br3884     Br  0.14029087  0.42416273  0.97450973    -0.02900
C3885       C  0.99015676  0.37449272  0.01531016    -0.09600
C3886       C  0.97033014  0.38850999  0.01433178     0.06600
C3887       C  0.96853020  0.40556178  0.99688775    -0.03300
C3888       C  0.98423228  0.40553252  0.97855127    -0.07800
C3889       C  0.00224965  0.38916834  0.97767310     0.05700
C3890       C  0.00635350  0.37488346  0.99733635    -0.02800
Br3891     Br  0.03242362  0.35425854  0.00067291    -0.02500
H3892       H  0.99226866  0.36194644  0.02916661     0.09700
H3893       H  0.98172687  0.41779664  0.96451317     0.07700
Br3894     Br  0.94482319  0.42903218  0.99698275    -0.02900
C3895       C  0.64464175  0.36788163  0.77125382    -0.09600
C3896       C  0.63133618  0.38144535  0.78700172     0.06600
C3897       C  0.61513796  0.39702997  0.77745087    -0.03300
C3898       C  0.61280184  0.39879970  0.75320121    -0.07800
C3899       C  0.62654267  0.38563975  0.73746964     0.05700
C3900       C  0.64262297  0.36996053  0.74704764    -0.02800
Br3901     Br  0.66309126  0.35140554  0.72859160    -0.02500
H3902       H  0.65732837  0.35556594  0.77768837     0.09700
H3903       H  0.60014287  0.41110768  0.74669538     0.07700
Br3904     Br  0.59621420  0.41704039  0.79604850    -0.02900
C3905       C  0.74957904  0.48414212  0.89643228    -0.09600
C3906       C  0.75029922  0.46858057  0.87777129     0.06600
C3907       C  0.76599229  0.47269989  0.85949648    -0.03300
C3908       C  0.78219721  0.49044267  0.86144977    -0.07800
C3909       C  0.78286754  0.50465417  0.88111289     0.05700
C3910       C  0.76575082  0.50196268  0.89841382    -0.02800
Br3911     Br  0.76487089  0.51940937  0.92671600    -0.02500
H3912       H  0.73742189  0.48148910  0.91049099     0.09700
H3913       H  0.79482895  0.49275726  0.84773482     0.07700
Br3914     Br  0.76606513  0.45554803  0.83111932    -0.02900
C3915       C  0.63714502  0.49402146  0.90659798    -0.09600
C3916       C  0.63469084  0.47826688  0.88798046     0.06600
C3917       C  0.63094886  0.48728580  0.86567638    -0.03300
C3918       C  0.62989098  0.51136956  0.86230453    -0.07800
C3919       C  0.63242215  0.52726478  0.88082692     0.05700
C3920       C  0.63588508  0.51821999  0.90327159    -0.02800
Br3921     Br  0.63805389  0.53777304  0.93002202    -0.02500
H3922       H  0.64051000  0.48741714  0.92389310     0.09700
H3923       H  0.62716820  0.51772418  0.84480891     0.07700
Br3924     Br  0.62908089  0.46758247  0.83896491    -0.02900
C3925       C  0.63979915  0.39454837  0.00482229    -0.09600
C3926       C  0.63393416  0.37691737  0.98884141     0.06600
C3927       C  0.62359119  0.35669037  0.99742472    -0.03300
C3928       C  0.62059106  0.35388372  0.02140718    -0.07800
C3929       C  0.62749135  0.37099574  0.03764370     0.05700
C3930       C  0.63653956  0.39188206  0.02887371    -0.02800
Br3931     Br  0.64401630  0.41767875  0.04835692    -0.02500
H3932       H  0.64738259  0.41053389  0.99857505     0.09700
H3933       H  0.61319065  0.33771001  0.02732373     0.07700
Br3934     Br  0.61492098  0.33154553  0.97750915    -0.02900
C3935       C  0.76624867  0.34182979  0.97517148    -0.09600
C3936       C  0.75164681  0.36136765  0.97603673     0.06600
C3937       C  0.75235939  0.37591493  0.99561714    -0.03300
C3938       C  0.76938742  0.37226489  0.01234701    -0.07800
C3939       C  0.78608424  0.35464199  0.00977139     0.05700
C3940       C  0.78340975  0.33831363  0.99184615    -0.02800
Br3941     Br  0.80225791  0.31100709  0.98891050    -0.02500
H3942       H  0.76502352  0.32971634  0.96088656     0.09700
H3943       H  0.77060127  0.38457064  0.02646543     0.07700
Br3944     Br  0.73285724  0.40269441  0.99964061    -0.02900
C3945       C  0.60844514  0.24284888  0.89287618    -0.09600
C3946       C  0.62749512  0.22738929  0.89126081     0.06600
C3947       C  0.64988815  0.23680411  0.89061328    -0.03300
C3948       C  0.65279802  0.26096768  0.89130002    -0.07800
C3949       C  0.63377540  0.27650859  0.89283818     0.05700
C3950       C  0.61136096  0.26707137  0.89363437    -0.02800
Br3951     Br  0.58418126  0.28622722  0.89490319    -0.02500
H3952       H  0.59103558  0.23595363  0.89402564     0.09700
H3953       H  0.67029269  0.26769067  0.89071704     0.07700
Br3954     Br  0.67713085  0.21760690  0.89078990    -0.02900
C3955       C  0.00525291  0.11992667  0.85309754    -0.09600
C3956       C  0.02218452  0.12869742  0.86864148     0.06600
C3957       C  0.01425477  0.14132341  0.88792827    -0.03300
C3958       C  0.99027865  0.14426789  0.89143846    -0.07800
C3959       C  0.97353195  0.13538760  0.87575714     0.05700
C3960       C  0.98149484  0.12334086  0.85622855    -0.02800
Br3961     Br  0.96156988  0.11282812  0.83175458    -0.02500
H3962       H  0.01004901  0.11072688  0.83760461     0.09700
H3963       H  0.98476315  0.15406519  0.90647514     0.07700
Br3964     Br  0.03499745  0.15574919  0.90951767    -0.02900
C3965       C  0.87195006  0.14676997  0.99821017    -0.09600
C3966       C  0.86867319  0.12838704  0.98229099     0.06600
C3967       C  0.86418431  0.10617117  0.99129620    -0.03300
C3968       C  0.86250763  0.10304271  0.01551328    -0.07800
C3969       C  0.86574095  0.12163350  0.03119011     0.05700
C3970       C  0.87081611  0.14356834  0.02220007    -0.02800
Br3971     Br  0.87423082  0.17026132  0.04174587    -0.02500
H3972       H  0.87521008  0.16414247  0.99201223     0.09700
H3973       H  0.85806938  0.08604814  0.02217074     0.07700
Br3974     Br  0.86080164  0.07965024  0.97163332    -0.02900
C3975       C  0.89100966  0.23798238  0.00196652    -0.09600
C3976       C  0.87071393  0.23750026  0.98856994     0.06600
C3977       C  0.85230955  0.25246576  0.99404810    -0.03300
C3978       C  0.85572843  0.27011765  0.01006729    -0.07800
C3979       C  0.87721690  0.27269254  0.02107052     0.05700
C3980       C  0.89444549  0.25548785  0.01825201    -0.02800
Br3981     Br  0.92422728  0.25648550  0.03309170    -0.02500
H3982       H  0.90517733  0.22618393  0.99826481     0.09700
H3983       H  0.84201528  0.28267530  0.01295292     0.07700
Br3984     Br  0.82267161  0.24999636  0.97940782    -0.02900
C3985       C  0.98444338  0.25089810  0.90011179    -0.09600
C3986       C  0.96631716  0.25050624  0.88391628     0.06600
C3987       C  0.96722551  0.26528586  0.86457080    -0.03300
C3988       C  0.98381634  0.28272658  0.86358529    -0.07800
C3989       C  0.00034647  0.28511661  0.88125404     0.05700
C3990       C  0.00177846  0.26777356  0.89869119    -0.02800
Br3991     Br  0.02587523  0.26636522  0.92173105    -0.02500
H3992       H  0.98450984  0.23884711  0.91455368     0.09700
H3993       H  0.98341631  0.29478578  0.84916396     0.07700
Br3994     Br  0.94679502  0.26167466  0.83866177    -0.02900
C3995       C  0.77395537  0.25604261  0.87399905    -0.09600
C3996       C  0.77941323  0.24773141  0.89621387     0.06600
C3997       C  0.76683634  0.25542245  0.91554979    -0.03300
C3998       C  0.75006286  0.27266394  0.91265596    -0.07800
C3999       C  0.74556000  0.28176500  0.89056881     0.05700
C4000       C  0.75718012  0.27307701  0.87105093    -0.02800
Br4001     Br  0.75279339  0.28568580  0.84047437    -0.02500
H4002       H  0.78369494  0.25023330  0.85901190     0.09700
H4003       H  0.74099321  0.27941567  0.92766504     0.07700
Br4004     Br  0.77171568  0.24266509  0.94582152    -0.02900
C4005       C  0.75527306  0.14303992  0.86789286    -0.09600
C4006       C  0.77271364  0.13221751  0.88160208     0.06600
C4007       C  0.76553551  0.11632332  0.89857251    -0.03300
C4008       C  0.74175390  0.11279765  0.90243874    -0.07800
C4009       C  0.72430405  0.12561734  0.89052392     0.05700
C4010       C  0.73148130  0.14030095  0.87246156    -0.02800
Br4011     Br  0.70998003  0.15858688  0.85471426    -0.02500
H4012       H  0.76002998  0.15471042  0.85400711     0.09700
H4013       H  0.73716331  0.10044004  0.91573721     0.07700
Br4014     Br  0.78708552  0.10059392  0.91859173    -0.02900
C4015       C  0.86666615  0.15969180  0.76349706    -0.09600
C4016       C  0.87363067  0.14350253  0.78081210     0.06600
C4017       C  0.88215580  0.12187118  0.77323609    -0.03300
C4018       C  0.88374374  0.11711967  0.74937115    -0.07800
C4019       C  0.87761459  0.13364201  0.73222605     0.05700
C4020       C  0.86862537  0.15501430  0.73963599    -0.02800
Br4021     Br  0.86078869  0.17925601  0.71811423    -0.02500
H4022       H  0.86028386  0.17664935  0.76822450     0.09700
H4023       H  0.89072604  0.10045867  0.74418475     0.07700
Br4024     Br  0.89292622  0.09831404  0.79423271    -0.02900
C4025       C  0.84344368  0.51371441  0.63202988    -0.09600
C4026       C  0.86100649  0.53003813  0.63736375     0.06600
C4027       C  0.88349006  0.52134097  0.64171635    -0.03300
C4028       C  0.88738181  0.49723020  0.64237409    -0.07800
C4029       C  0.86943872  0.48100827  0.63856405     0.05700
C4030       C  0.84746723  0.48961820  0.63249875    -0.02800
Br4031     Br  0.82194214  0.46931891  0.62647919    -0.02500
H4032       H  0.82606051  0.51964763  0.62799177     0.09700
H4033       H  0.90461820  0.49105109  0.64670460     0.07700
Br4034     Br  0.90985800  0.54093455  0.64630828    -0.02900
C4035       C  0.76092193  0.37475332  0.75350781    -0.09600
C4036       C  0.78019509  0.38887888  0.75811862     0.06600
C4037       C  0.77989691  0.40318937  0.77787306    -0.03300
C4038       C  0.76170484  0.40142895  0.79346083    -0.07800
C4039       C  0.74397337  0.38514664  0.79046421     0.05700
C4040       C  0.74301495  0.37243290  0.76958319    -0.02800
Br4041     Br  0.72004549  0.34959555  0.76241451    -0.02500
H4042       H  0.76045137  0.36395913  0.73820520     0.09700
H4043       H  0.76247522  0.41165800  0.80911289     0.07700
Br4044     Br  0.80422326  0.42431602  0.78605364    -0.02900
C4045       C  0.76424857  0.39056262  0.62219725    -0.09600
C4046       C  0.77159528  0.37785698  0.64158742     0.06600
C4047       C  0.75418698  0.36628057  0.65492909    -0.03300
C4048       C  0.73056335  0.37065116  0.65095090    -0.07800
C4049       C  0.72337234  0.38521347  0.63301223     0.05700
C4050       C  0.74051130  0.39356944  0.61734690    -0.02800
Br4051     Br  0.73294361  0.40744312  0.58792753    -0.02500
H4052       H  0.77696461  0.39820946  0.61072278     0.09700
H4053       H  0.71775918  0.36314085  0.66244031     0.07700
Br4054     Br  0.76034299  0.34350219  0.67856657    -0.02900
C4055       C  0.89095562  0.48339249  0.76254905    -0.09600
C4056       C  0.86922849  0.47625260  0.75452719     0.06600
C4057       C  0.84889375  0.48585195  0.76379947    -0.03300
C4058       C  0.85041802  0.50097997  0.78251323    -0.07800
C4059       C  0.87209275  0.50675062  0.79168448     0.05700
C4060       C  0.89256346  0.49851070  0.78121000    -0.02800
Br4061     Br  0.92293042  0.50454239  0.79353968    -0.02500
H4062       H  0.90664960  0.47569677  0.75560232     0.09700
H4063       H  0.83470174  0.50767577  0.79036557     0.07700
Br4064     Br  0.81889897  0.47821863  0.75173737    -0.02900
C4065       C  0.99027274  0.37800708  0.66149685    -0.09600
C4066       C  0.97347386  0.37523225  0.64370962     0.06600
C4067       C  0.98136238  0.36989900  0.62129614    -0.03300
C4068       C  0.00531636  0.36810057  0.61708849    -0.07800
C4069       C  0.02193964  0.37138567  0.63487515     0.05700
C4070       C  0.01408522  0.37645366  0.65725850    -0.02800
Br4071     Br  0.03485210  0.37959485  0.68311553    -0.02500
H4072       H  0.98503348  0.38114473  0.67921880     0.09700
H4073       H  0.01100078  0.36361104  0.59976018     0.07700
Br4074     Br  0.96049752  0.36481106  0.59593388    -0.02900
C4075       C  0.97188194  0.35550992  0.76834610    -0.09600
C4076       C  0.96879661  0.37554715  0.75484390     0.06600
C4077       C  0.98563135  0.39322091  0.75584108    -0.03300
C4078       C  0.00302944  0.39204311  0.77270037    -0.07800
C4079       C  0.00414284  0.37328785  0.78821892     0.05700
C4080       C  0.98956203  0.35415461  0.78481799    -0.02800
Br4081     Br  0.99316442  0.32596137  0.80225750    -0.02500
H4082       H  0.95999437  0.34118995  0.76662687     0.09700
H4083       H  0.01466024  0.40660626  0.77467343     0.07700
Br4084     Br  0.98478240  0.42039958  0.73653249    -0.02900
C4085       C  0.89471222  0.27628153  0.80014104    -0.09600
C4086       C  0.87683006  0.25998202  0.80074273     0.06600
C4087       C  0.86146416  0.25850002  0.78163731    -0.03300
C4088       C  0.86355000  0.27413806  0.76324750    -0.07800
C4089       C  0.88053889  0.29143715  0.76351194     0.05700
C4090       C  0.89685901  0.29173944  0.78172441    -0.02800
Br4091     Br  0.92242994  0.31279841  0.78285105    -0.02500
H4092       H  0.90684194  0.27747013  0.81434465     0.09700
H4093       H  0.85081118  0.27362427  0.74945366     0.07700
Br4094     Br  0.83566234  0.23756423  0.78016011    -0.02900
C4095       C  0.85459855  0.26573562  0.64283873    -0.09600
C4096       C  0.87417308  0.28040948  0.64202040     0.06600
C4097       C  0.89614883  0.27026620  0.63965698    -0.03300
C4098       C  0.89828825  0.24615484  0.63797819    -0.07800
C4099       C  0.87885071  0.23128965  0.63845867     0.05700
C4100       C  0.85672319  0.24142571  0.64081011    -0.02800
Br4101     Br  0.82900751  0.22322355  0.64032563    -0.02500
H4102       H  0.83752625  0.27325560  0.64523106     0.09700
H4103       H  0.91557676  0.23895508  0.63641622     0.07700
Br4104     Br  0.92401951  0.28829217  0.64073769    -0.02900
C4105       C  0.60036107  0.76001323  0.89771183    -0.09600
C4106       C  0.61149918  0.77739711  0.88435968     0.06600
C4107       C  0.62878597  0.77031017  0.86874500    -0.03300
C4108       C  0.63385899  0.74662930  0.86621496    -0.07800
C4109       C  0.62139705  0.72911952  0.87816311     0.05700
C4110       C  0.60486581  0.73625571  0.89456063    -0.02800
Br4111     Br  0.58683072  0.71463651  0.91219209    -0.02500
H4112       H  0.58747542  0.76467168  0.91047912     0.09700
H4113       H  0.64736352  0.74208634  0.85406900     0.07700
Br4114     Br  0.64482665  0.79169197  0.84893330    -0.02900
C4115       C  0.59941262  0.88240636  0.76809894    -0.09600
C4116       C  0.61440869  0.87153110  0.78438387     0.06600
C4117       C  0.63262608  0.85786058  0.77555257    -0.03300
C4118       C  0.63525009  0.85539015  0.75138691    -0.07800
C4119       C  0.62003482  0.86615214  0.73518442     0.05700
C4120       C  0.60193332  0.87985377  0.74407027    -0.02800
Br4121     Br  0.57921612  0.89493581  0.72500129    -0.02500
H4122       H  0.58512767  0.89308702  0.77394886     0.09700
H4123       H  0.64945430  0.84469893  0.74528407     0.07700
Br4124     Br  0.65465988  0.84221061  0.79501121    -0.02900
C4125       C  0.61519402  0.98560125  0.91497697    -0.09600
C4126       C  0.61802172  0.97761680  0.89228523     0.06600
C4127       C  0.62043781  0.99423575  0.87425640    -0.03300
C4128       C  0.62098632  0.01811459  0.87923341    -0.07800
C4129       C  0.61846480  0.02610793  0.90201165     0.05700
C4130       C  0.61487173  0.00945206  0.91988394    -0.02800
Br4131     Br  0.60685798  0.01797298  0.95108161    -0.02500
H4132       H  0.61171974  0.97329682  0.92876410     0.09700
H4133       H  0.62385082  0.03040979  0.86530704     0.07700
Br4134     Br  0.62318140  0.98521764  0.84233444    -0.02900
C4135       C  0.60417484  0.85941059  0.00216284    -0.09600
C4136       C  0.61187915  0.87605010  0.98586338     0.06600
C4137       C  0.62359345  0.89558410  0.99422514    -0.03300
C4138       C  0.62637062  0.89867929  0.01821283    -0.07800
C4139       C  0.61769300  0.88265014  0.03475983     0.05700
C4140       C  0.60689540  0.86246966  0.02623530    -0.02800
Br4141     Br  0.59535524  0.83833275  0.04591612    -0.02500
H4142       H  0.59541351  0.84396492  0.99616641     0.09700
H4143       H  0.63499334  0.91432537  0.02385338     0.07700
Br4144     Br  0.63443970  0.91961623  0.97394173    -0.02900
C4145       C  0.37079661  0.74568353  0.15159380    -0.09600
C4146       C  0.37427598  0.73027023  0.13279197     0.06600
C4147       C  0.37841783  0.73984556  0.11085301    -0.03300
C4148       C  0.37798085  0.76393763  0.10783450    -0.07800
C4149       C  0.37385396  0.77949890  0.12638035     0.05700
C4150       C  0.37080830  0.76997998  0.14864740    -0.02800
Br4151     Br  0.36737787  0.78901083  0.17561234    -0.02500
H4152       H  0.36741633  0.73871386  0.16872263     0.09700
H4153       H  0.38058251  0.77045954  0.09045528     0.07700
Br4154     Br  0.38297563  0.72113968  0.08393729    -0.02900
C4155       C  0.23816329  0.85151720  0.13028611    -0.09600
C4156       C  0.22251093  0.87047936  0.13148976     0.06600
C4157       C  0.23175210  0.89296328  0.13185349    -0.03300
C4158       C  0.25598380  0.89601132  0.13111564    -0.07800
C4159       C  0.27149933  0.87692476  0.13047378     0.05700
C4160       C  0.26220725  0.85452791  0.13012309    -0.02800
Br4161     Br  0.28154274  0.82748201  0.12763016    -0.02500
H4162       H  0.23167717  0.83392713  0.12964064     0.09700
H4163       H  0.26279296  0.91347566  0.13022676     0.07700
Br4164     Br  0.21213500  0.91978795  0.13363354    -0.02900
C4165       C  0.48779664  0.88232854  0.10319997    -0.09600
C4166       C  0.47152396  0.88343187  0.12153195     0.06600
C4167       C  0.47995001  0.88214608  0.14442921    -0.03300
C4168       C  0.50400398  0.88102233  0.14847574    -0.07800
C4169       C  0.52021553  0.88074326  0.13010520     0.05700
C4170       C  0.51176792  0.88102214  0.10728399    -0.02800
Br4171     Br  0.53235080  0.88185484  0.08118544    -0.02500
H4172       H  0.48184452  0.88285408  0.08536967     0.09700
H4173       H  0.51019984  0.88135223  0.16622832     0.07700
Br4174     Br  0.45970355  0.88100166  0.17074212    -0.02900
C4175       C  0.47731766  0.87446054  0.00781916    -0.09600
C4176       C  0.45808768  0.88924188  0.00541708     0.06600
C4177       C  0.45801785  0.90629791  0.98798653    -0.03300
C4178       C  0.47601131  0.90680558  0.97201268    -0.07800
C4179       C  0.49391744  0.89023758  0.97272347     0.05700
C4180       C  0.49520665  0.87471882  0.99167599    -0.02800
Br4181     Br  0.51937911  0.85204618  0.99611117    -0.02500
H4182       H  0.47784958  0.86149756  0.02141493     0.09700
H4183       H  0.47521981  0.91956645  0.95828006     0.07700
Br4184     Br  0.43377221  0.92899447  0.98457804    -0.02900
C4185       C  0.39859361  0.01476570  0.11678676    -0.09600
C4186       C  0.37935804  0.03009037  0.11721002     0.06600
C4187       C  0.35703206  0.02060008  0.11561931    -0.03300
C4188       C  0.35432675  0.99642115  0.11446968    -0.07800
C4189       C  0.37352416  0.98112846  0.11485870     0.05700
C4190       C  0.39588158  0.99063001  0.11548334    -0.02800
Br4191     Br  0.42317501  0.97165525  0.11295406    -0.02500
H4192       H  0.41602244  0.02162971  0.11767476     0.09700
H4193       H  0.33695873  0.98946066  0.11310721     0.07700
Br4194     Br  0.32968941  0.03954148  0.11606002    -0.02900
C4195       C  0.23832602  0.14204419  0.87352843    -0.09600
C4196       C  0.22330314  0.12287303  0.87549826     0.06600
C4197       C  0.23306367  0.10065665  0.87794336    -0.03300
C4198       C  0.25727276  0.09807097  0.87849291    -0.07800
C4199       C  0.27237991  0.11726812  0.87639291     0.05700
C4200       C  0.26253170  0.13947210  0.87396358    -0.02800
Br4201     Br  0.28093884  0.16698362  0.87210749    -0.02500
H4202       H  0.23111433  0.15927638  0.87117969     0.09700
H4203       H  0.26435430  0.08073654  0.88035116     0.07700
Br4204     Br  0.21438106  0.07319065  0.87855815    -0.02900
C4205       C  0.38692626  0.12520924  0.76523054    -0.09600
C4206       C  0.36826829  0.12500155  0.78108077     0.06600
C4207       C  0.34575808  0.12840604  0.77246571    -0.03300
C4208       C  0.34217490  0.13113421  0.74852226    -0.07800
C4209       C  0.36074918  0.13091936  0.73245551     0.05700
C4210       C  0.38339696  0.12843438  0.74124666    -0.02800
Br4211     Br  0.41005718  0.13023647  0.72153463    -0.02500
H4212       H  0.40441764  0.12239995  0.77153978     0.09700
H4213       H  0.32448880  0.13295503  0.74247721     0.07700
Br4214     Br  0.31917631  0.12745048  0.79244044    -0.02900
C4215       C  0.49009301  0.12175466  0.86411382    -0.09600
C4216       C  0.47384501  0.12216281  0.88247738     0.06600
C4217       C  0.48235584  0.12194253  0.90530103    -0.03300
C4218       C  0.50638242  0.12198381  0.90937739    -0.07800
C4219       C  0.52272052  0.12150723  0.89107995     0.05700
C4220       C  0.51420734  0.12131329  0.86817432    -0.02800
Br4221     Br  0.53445487  0.12078839  0.84185184    -0.02500
H4222       H  0.48391967  0.12096634  0.84637202     0.09700
H4223       H  0.51236788  0.12195884  0.92720231     0.07700
Br4224     Br  0.46199968  0.11889767  0.93141524    -0.02900
C4225       C  0.47330547  0.99794094  0.90868782    -0.09600
C4226       C  0.47007859  0.01153739  0.88871988     0.06600
C4227       C  0.48697354  0.01086536  0.87097367    -0.03300
C4228       C  0.50460976  0.99427362  0.87203436    -0.07800
C4229       C  0.50578671  0.97859215  0.89057149     0.05700
C4230       C  0.49117901  0.98165452  0.90980528    -0.02800
Br4231     Br  0.49466434  0.96366108  0.93762619    -0.02500
H4232       H  0.46120629  0.99914057  0.92300089     0.09700
H4233       H  0.51617503  0.99239438  0.85735987     0.07700
Br4234     Br  0.48586535  0.02981354  0.84353331    -0.02900
C4235       C  0.36435785  0.11125292  0.99789464    -0.09600
C4236       C  0.37725571  0.12417050  0.98133168     0.06600
C4237       C  0.39180190  0.14176221  0.98969897    -0.03300
C4238       C  0.39312144  0.14597888  0.01359205    -0.07800
C4239       C  0.38145420  0.13213242  0.03020787     0.05700
C4240       C  0.36652063  0.11484635  0.02193349    -0.02800
Br4241     Br  0.34966493  0.09475597  0.04237282    -0.02500
H4242       H  0.35283843  0.09759579  0.99225648     0.09700
H4243       H  0.40420319  0.16000413  0.01903303     0.07700
Br4244     Br  0.41200149  0.15953922  0.97026590    -0.02900
C4245       C  0.38812656  0.00080592  0.99145273    -0.09600
C4246       C  0.37241389  0.00427397  0.97328493     0.06600
C4247       C  0.35271182  0.99008583  0.97104682    -0.03300
C4248       C  0.34968885  0.97173547  0.98632838    -0.07800
C4249       C  0.36602356  0.96756692  0.00372176     0.05700
C4250       C  0.38495388  0.98243083  0.00683178    -0.02800
Br4251     Br  0.40727540  0.97737513  0.03104149    -0.02500
H4252       H  0.40320842  0.01181885  0.99314230     0.09700
H4253       H  0.33508764  0.96016949  0.98410501     0.07700
Br4254     Br  0.33022086  0.99413965  0.94667667    -0.02900
C4255       C  0.35207606  0.63742887  0.76926614    -0.09600
C4256       C  0.37064868  0.63736619  0.78532458     0.06600
C4257       C  0.39336066  0.63658701  0.77684071    -0.03300
C4258       C  0.39718769  0.63611815  0.75292200    -0.07800
C4259       C  0.37875347  0.63537824  0.73669130     0.05700
C4260       C  0.35593843  0.63607578  0.74517628    -0.02800
Br4261     Br  0.32973105  0.63423891  0.72482658    -0.02500
H4262       H  0.33441874  0.63871918  0.77553535     0.09700
H4263       H  0.41499920  0.63585732  0.74699214     0.07700
Br4264     Br  0.41985291  0.63745927  0.79702883    -0.02900
C4265       C  0.48253360  0.75328194  0.88231153    -0.09600
C4266       C  0.46270758  0.75575070  0.86842773     0.06600
C4267       C  0.46154759  0.77418196  0.85235890    -0.03300
C4268       C  0.47847112  0.79129249  0.85270824    -0.07800
C4269       C  0.49645136  0.79063702  0.86907705     0.05700
C4270       C  0.49939686  0.77048846  0.88285704    -0.02800
Br4271     Br  0.52448745  0.76556228  0.90434092    -0.02500
H4272       H  0.48422937  0.73882376  0.89419161     0.09700
H4273       H  0.47670499  0.80583689  0.84092805     0.07700
Br4274     Br  0.43706875  0.77782134  0.83010037    -0.02900
C4275       C  0.50805869  0.61492470  0.88095807    -0.09600
C4276       C  0.52370380  0.63376677  0.88204336     0.06600
C4277       C  0.51445458  0.65630926  0.88113590    -0.03300
C4278       C  0.49035287  0.65959086  0.87945135    -0.07800
C4279       C  0.47462109  0.64079852  0.87850139     0.05700
C4280       C  0.48387292  0.61819496  0.87930179    -0.02800
Br4281     Br  0.46457581  0.59122644  0.87901432    -0.02500
H4282       H  0.51480191  0.59735639  0.88092601     0.09700
H4283       H  0.48384167  0.67722941  0.87879976     0.07700
Br4284     Br  0.53385828  0.68320266  0.88016960    -0.02900
C4285       C  0.37307061  0.65750537  0.00108696    -0.09600
C4286       C  0.37431190  0.63887031  0.98529681     0.06600
C4287       C  0.37440848  0.61616515  0.99445049    -0.03300
C4288       C  0.37344527  0.61265782  0.01870076    -0.07800
C4289       C  0.37209519  0.63139179  0.03445258     0.05700
C4290       C  0.37131286  0.65392064  0.02514673    -0.02800
Br4291     Br  0.36410095  0.68006688  0.04410795    -0.02500
H4292       H  0.37247260  0.67514388  0.99458800     0.09700
H4293       H  0.37280290  0.59506464  0.02529781     0.07700
Br4294     Br  0.37606506  0.58940038  0.97484536    -0.02900
C4295       C  0.38632128  0.75175962  0.99265499    -0.09600
C4296       C  0.36656038  0.74888487  0.97891460     0.06600
C4297       C  0.34576320  0.76000726  0.98486955    -0.03300
C4298       C  0.34575371  0.77608384  0.00285084    -0.07800
C4299       C  0.36625769  0.78089225  0.01499473     0.05700
C4300       C  0.38649410  0.76777351  0.01054838    -0.02800
Br4301     Br  0.41608692  0.77286104  0.02502335    -0.02500
H4302       H  0.40236838  0.74299868  0.98823541     0.09700
H4303       H  0.33004309  0.78575186  0.00654557     0.07700
Br4304     Br  0.31728320  0.75385481  0.96890371    -0.02900
C4305       C  0.25907970  0.65686452  0.90381963    -0.09600
C4306       C  0.27394857  0.63905706  0.89593749     0.06600
C4307       C  0.26407656  0.61923500  0.88594316    -0.03300
C4308       C  0.23988905  0.61758202  0.88384558    -0.07800
C4309       C  0.22514610  0.63576407  0.89094873     0.05700
C4310       C  0.23500321  0.65541981  0.90132085    -0.02800
Br4311     Br  0.21626229  0.68029411  0.91319092    -0.02500
H4312       H  0.26638437  0.67263301  0.91091418     0.09700
H4313       H  0.23246674  0.60175560  0.87703439     0.07700
Br4314     Br  0.28295269  0.59474289  0.87372751    -0.02900
C4315       C  0.14023589  0.98764965  0.85829362    -0.09600
C4316       C  0.12850043  0.97792357  0.87717623     0.06600
C4317       C  0.11870025  0.99299679  0.89382818    -0.03300
C4318       C  0.12013844  0.01721746  0.89109451    -0.07800
C4319       C  0.13185478  0.02690593  0.87213414     0.05700
C4320       C  0.14200757  0.01173131  0.85569233    -0.02800
Br4321     Br  0.15896122  0.02305646  0.82933754    -0.02500
H4322       H  0.14916471  0.97643110  0.84613345     0.09700
H4323       H  0.11141403  0.02845311  0.90336652     0.07700
Br4324     Br  0.10357637  0.98105647  0.92089083    -0.02900
C4325       C  0.13422274  0.89564957  0.99959624    -0.09600
C4326       C  0.12781327  0.87831020  0.98349511     0.06600
C4327       C  0.11790365  0.85789131  0.99209164    -0.03300
C4328       C  0.11562923  0.85481808  0.01615105    -0.07800
C4329       C  0.12357671  0.87150012  0.03247470     0.05700
C4330       C  0.13268843  0.89231047  0.02367727    -0.02800
Br4331     Br  0.14413890  0.91665828  0.04302352    -0.02500
H4332       H  0.14151412  0.91179962  0.99344685     0.09700
H4333       H  0.10821704  0.83864069  0.02199589     0.07700
Br4334     Br  0.10922010  0.83277425  0.97211181    -0.02900
C4335       C  0.25167628  0.84938585  0.98126490    -0.09600
C4336       C  0.24082735  0.87088342  0.97815322     0.06600
C4337       C  0.24311219  0.88812965  0.99523940    -0.03300
C4338       C  0.25868254  0.88460787  0.01338076    -0.07800
C4339       C  0.27239309  0.86444911  0.01425575     0.05700
C4340       C  0.26775085  0.84607673  0.99895321    -0.02800
Br4341     Br  0.28359916  0.81673560  0.00042940    -0.02500
H4342       H  0.24844686  0.83553513  0.96917475     0.09700
H4343       H  0.26174779  0.89872828  0.02535436     0.07700
Br4344     Br  0.22834784  0.91798899  0.99322803    -0.02900
C4345       C  0.25949397  0.97603740  0.85882797    -0.09600
C4346       C  0.24524226  0.97296814  0.87826329     0.06600
C4347       C  0.24741418  0.98819625  0.89730815    -0.03300
C4348       C  0.26522247  0.00452228  0.89739928    -0.07800
C4349       C  0.28086815  0.00592312  0.87885132     0.05700
C4350       C  0.27717348  0.99240378  0.85895216    -0.02800
Br4351     Br  0.29562716  0.99562429  0.83150832    -0.02500
H4352       H  0.25748286  0.96498501  0.84379824     0.09700
H4353       H  0.26770855  0.01512153  0.91268974     0.07700
Br4354     Br  0.22864464  0.98627291  0.92476446    -0.02900
C4355       C  0.24045386  0.76506169  0.88467558    -0.09600
C4356       C  0.24411810  0.78590620  0.89673834     0.06600
C4357       C  0.26228668  0.78686188  0.91309909    -0.03300
C4358       C  0.27806581  0.76879521  0.91461152    -0.07800
C4359       C  0.27699518  0.75010860  0.89932081     0.05700
C4360       C  0.25674609  0.74703762  0.88589348    -0.02800
Br4361     Br  0.25078533  0.71972626  0.86786927    -0.02500
H4362       H  0.22591640  0.76332219  0.87293488     0.09700
H4363       H  0.29255184  0.77060876  0.92637002     0.07700
Br4364     Br  0.26872940  0.81273857  0.93258152    -0.02900
C4365       C  0.12617258  0.76400509  0.87150079    -0.09600
C4366       C  0.13266760  0.77833286  0.89020617     0.06600
C4367       C  0.14032086  0.76778029  0.91083841    -0.03300
C4368       C  0.14015380  0.74358125  0.91292506    -0.07800
C4369       C  0.13260381  0.72919616  0.89465173     0.05700
C4370       C  0.12586881  0.73966882  0.87365008    -0.02800
Br4371     Br  0.11515208  0.72155994  0.84799159    -0.02500
H4372       H  0.12146845  0.77181993  0.85503769     0.09700
H4373       H  0.14537237  0.73591334  0.92931471     0.07700
Br4374     Br  0.15226556  0.78558162  0.93624503    -0.02900
C4375       C  0.13688284  0.86504077  0.76711206    -0.09600
C4376       C  0.13016937  0.88261111  0.78287290     0.06600
C4377       C  0.12127871  0.90341118  0.77376470    -0.03300
C4378       C  0.11956677  0.90629086  0.74965818    -0.07800
C4379       C  0.12666333  0.88892778  0.73369710     0.05700
C4380       C  0.13520566  0.86793040  0.74291688    -0.02800
Br4381     Br  0.14450881  0.84233560  0.72393743    -0.02500
H4382       H  0.14386448  0.84883675  0.77368606     0.09700
H4383       H  0.11290324  0.92272707  0.74346790     0.07700
Br4384     Br  0.11301650  0.92934204  0.79292208    -0.02900
C4385       C  0.35853852  0.76331070  0.63307637    -0.09600
C4386       C  0.37692205  0.77939220  0.63337764     0.06600
C4387       C  0.39971997  0.77080958  0.63371094    -0.03300
C4388       C  0.40367733  0.74677179  0.63502148    -0.07800
C4389       C  0.38523086  0.73062689  0.63596985     0.05700
C4390       C  0.36243961  0.73925860  0.63424127    -0.02800
Br4391     Br  0.33596377  0.71937886  0.63276216    -0.02500
H4392       H  0.34081328  0.76962163  0.63312253     0.09700
H4393       H  0.42146057  0.74070167  0.63577996     0.07700
Br4394     Br  0.42589145  0.79124250  0.63442247    -0.02900
C4395       C  0.49090828  0.88329848  0.65337429    -0.09600
C4396       C  0.47448295  0.87252807  0.63849186     0.06600
C4397       C  0.48321888  0.85836024  0.62063635    -0.03300
C4398       C  0.50727391  0.85471630  0.61861969    -0.07800
C4399       C  0.52342531  0.86425890  0.63445743     0.05700
C4400       C  0.51486745  0.87912818  0.65171002    -0.02800
Br4401     Br  0.53461205  0.89259885  0.67480394    -0.02500
H4402       H  0.48515160  0.89456479  0.66723450     0.09700
H4403       H  0.51324003  0.84365460  0.60470497     0.07700
Br4404     Br  0.46373693  0.84235170  0.59911430    -0.02900
C4405       C  0.35828363  0.76511611  0.75228702    -0.09600
C4406       C  0.37968667  0.77570837  0.74807872     0.06600
C4407       C  0.39916450  0.76870152  0.76094000    -0.03300
C4408       C  0.39616752  0.75548321  0.78098683    -0.07800
C4409       C  0.37407003  0.74765668  0.78718023     0.05700
C4410       C  0.35546632  0.75062724  0.77150415    -0.02800
Br4411     Br  0.32529014  0.73765166  0.77655191    -0.02500
H4412       H  0.34327420  0.76961397  0.74186678     0.09700
H4413       H  0.41098085  0.75158945  0.79189347     0.07700
Br4414     Br  0.42988645  0.77623466  0.75106395    -0.02900
C4415       C  0.48859915  0.88128861  0.74877315    -0.09600
C4416       C  0.47124683  0.86460757  0.75233505     0.06600
C4417       C  0.47273901  0.85004662  0.77193414    -0.03300
C4418       C  0.48957755  0.85418333  0.78867198    -0.07800
C4419       C  0.50482829  0.87294175  0.78660798     0.05700
C4420       C  0.50512030  0.88585403  0.76581702    -0.02800
Br4421     Br  0.52480641  0.91203347  0.76040236    -0.02500
H4422       H  0.48825266  0.89241598  0.73366529     0.09700
H4423       H  0.48968394  0.84357318  0.80422498     0.07700
Br4424     Br  0.45159602  0.82530545  0.77809044    -0.02900
C4425       C  0.34595554  0.01441284  0.64506889    -0.09600
C4426       C  0.36519286  0.02956215  0.64571126     0.06600
C4427       C  0.38728268  0.01956069  0.64921357    -0.03300
C4428       C  0.38970119  0.99516869  0.65100545    -0.07800
C4429       C  0.37046576  0.98007726  0.64919938     0.05700
C4430       C  0.34836188  0.99018351  0.64688960    -0.02800
Br4431     Br  0.32067244  0.97192275  0.64795079    -0.02500
H4432       H  0.32865883  0.02149384  0.64297279     0.09700
H4433       H  0.40685745  0.98789857  0.65360622     0.07700
Br4434     Br  0.41473382  0.03810896  0.65051488    -0.02900
C4435       C  0.38981444  0.98072432  0.76070838    -0.09600
C4436       C  0.37256230  0.96364073  0.76098697     0.06600
C4437       C  0.35327991  0.96625212  0.77557560    -0.03300
C4438       C  0.35210657  0.98510426  0.79045478    -0.07800
C4439       C  0.37013561  0.00126125  0.79151161     0.05700
C4440       C  0.38891909  0.99941827  0.77594957    -0.02800
Br4441     Br  0.41511465  0.01993114  0.77594734    -0.02500
H4442       H  0.40477840  0.97890220  0.74952107     0.09700
H4443       H  0.33743294  0.98656177  0.80203727     0.07700
Br4444     Br  0.32807387  0.94480157  0.77621850    -0.02900
C4445       C  0.27952712  0.89896751  0.77053114    -0.09600
C4446       C  0.28323953  0.87800744  0.75885915     0.06600
C4447       C  0.26711320  0.85986455  0.76137822    -0.03300
C4448       C  0.24866044  0.86243134  0.77677457    -0.07800
C4449       C  0.24621360  0.88268042  0.78999159     0.05700
C4450       C  0.26117480  0.90145446  0.78605460    -0.02800
Br4451     Br  0.25750191  0.93060556  0.80167682    -0.02500
H4452       H  0.29129454  0.91324744  0.76798884     0.09700
H4453       H  0.23730918  0.84780275  0.77971058     0.07700
Br4454     Br  0.27083077  0.83011219  0.74690851    -0.02900
C4455       C  0.25640384  0.88725666  0.66335653    -0.09600
C4456       C  0.27219446  0.88416477  0.64486953     0.06600
C4457       C  0.26312052  0.88122740  0.62240331    -0.03300
C4458       C  0.23892695  0.88177917  0.61885260    -0.07800
C4459       C  0.22323177  0.88483177  0.63742101     0.05700
C4460       C  0.23233307  0.88765021  0.65982940    -0.02800
Br4461     Br  0.21266355  0.89401545  0.68588765    -0.02500
H4462       H  0.26286735  0.88940146  0.68087725     0.09700
H4463       H  0.23229925  0.88053305  0.60130442     0.07700
Br4464     Br  0.28286078  0.87569014  0.59626872    -0.02900
loop_ 
_geom_bond_atom_site_label_1 
_geom_bond_atom_site_label_2 
_geom_bond_distance 
_geom_bond_site_symmetry_2 
_ccdc_geom_bond_type 
C1           N19   1.373       .  A
C1           C38   1.433       .  S
C1         C4456   1.495       .  S
N2           N19   1.342       .  A
N2           N24   1.323       .  A
N2          Co39   2.177       .  S
C3           N28   1.337       .  A
C3           C41   1.461       .  S
C3           H48   1.081       .  S
H4           C45   1.081       .  S
C5           N29   1.332       .  A
C5            C9   1.448       .  S
C5           H34   1.081       .  S
Co6          N24   2.033       .  S
Co6          N14   2.063       .  S
Co6          N46   2.033       .  S
Co6          N22   2.068       .  S
Co6         Cl50   2.426       .  S
N7           C45   1.340       .  A
N7           N14   1.316       .  A
N7           Co8   2.076       .  S
Co8          N11   2.075       .  S
Co8          N28   2.075       .  S
Co8          N15   2.068       .  S
Co8         Cl50   2.470       .  S
C9           N47   1.351       .  A
C9         C4436   1.461       .  S
N10          N17   1.323       .  A
N10          N40   1.321       .  A
N10         Co43   2.052       .  S
N11          N29   1.316       .  A
N11          N47   1.323       .  A
N12          C41   1.349       .  A
N12          N22   1.324       .  A
H13          C38   1.081       .  S
N14          N35   1.322       .  A
N15          N33   1.313       .  A
N15          N20   1.322       .  A
C16          N20   1.351       .  A
C16          C44   1.460       .  S
C16        C4416   1.475       .  S
N17          C32   1.361       .  A
N17         Co39   2.174       .  S
C18          N46   1.324       .  A
C18          C21   1.432       .  S
C18          H52   1.082       .  S
C21          N42   1.370       .  A
C21        C4386   1.484       .  S
N22          N28   1.315       .  A
N23          C49   1.364       .  A
N23          N25   1.319       .  A
N23         Co39   2.171       .  S
N24          C38   1.324       .  A
N25          N53   1.312       .  A
N25         Co43   2.025       .  S
H26          C49   1.079       .  S
H27          C44   1.080       .  S
N29         Co43   2.049       .  S
N30          N42   1.340       .  A
N30          N46   1.322       .  A
N30         Co39   2.162       .  S
C31          N35   1.344       .  A
C31          C45   1.459       .  S
C31        C4446   1.467       .  S
C32          C51   1.493       .  S
C32          H36   1.081       .  S
N33          C44   1.335       .  A
N33         Co43   2.065       .  S
C37          N53   1.334       .  A
C37          C49   1.502       .  S
C37        C4396   1.510       .  S
Co39        Cl50   2.473       .  S
N40          C51   1.338       .  A
C41        C4406   1.466       .  S
Co43        Cl50   2.424       .  S
C51        C4429   1.504       .  S
C54          N72   1.347       .  A
C54          C91   1.457       .  S
C54        C4346   1.468       .  S
N55          N72   1.322       .  A
N55          N77   1.315       .  A
N55         Co92   2.068       .  S
C56          N81   1.341       .  A
C56          C94   1.460       .  S
C56         H101   1.081       .  S
H57          C98   1.081       .  S
C58          N82   1.358       .  A
C58          C62   1.489       .  S
C58          H87   1.081       .  S
Co59         N77   2.062       .  S
Co59         N67   2.068       .  S
Co59         N99   2.068       .  S
Co59         N75   2.071       .  S
Co59       Cl103   2.464       .  S
N60          C98   1.337       .  A
N60          N67   1.314       .  A
N60         Co61   2.066       .  S
Co61         N64   2.040       .  S
Co61         N81   2.071       .  S
Co61         N68   2.039       .  S
Co61       Cl103   2.429       .  S
C62         N100   1.336       .  A
C62        C4376   1.493       .  S
N63          N70   1.321       .  A
N63          N93   1.338       .  A
N63         Co96   2.159       .  S
N64          N82   1.322       .  A
N64         N100   1.315       .  A
N65          C94   1.348       .  A
N65          N75   1.320       .  A
H66          C91   1.082       .  S
N67          N88   1.321       .  A
N68          N86   1.324       .  A
N68          N73   1.316       .  A
C69          N73   1.332       .  A
C69          C97   1.485       .  S
C69        C4366   1.480       .  S
N70          C85   1.324       .  A
N70         Co92   2.025       .  S
C71          N99   1.335       .  A
C71          C74   1.457       .  S
C71         H105   1.077       .  S
C74          N95   1.341       .  A
C74        C4336   1.459       .  S
N75          N81   1.315       .  A
N76         C102   1.323       .  A
N76          N78   1.320       .  A
N76         Co92   2.032       .  S
N77          C91   1.335       .  A
N78         N106   1.340       .  A
N78         Co96   2.158       .  S
H79         C102   1.081       .  S
H80          C97   1.081       .  S
N82         Co96   2.155       .  S
N83          N95   1.320       .  A
N83          N99   1.314       .  A
N83         Co92   2.047       .  S
C84          N88   1.350       .  A
C84          C98   1.458       .  S
C84        C4449   1.465       .  S
C85         C104   1.430       .  S
C85          H89   1.082       .  S
N86          C97   1.359       .  A
N86         Co96   2.157       .  S
C90         N106   1.371       .  A
C90         C102   1.436       .  S
C90        C4326   1.493       .  S
Co92       Cl103   2.423       .  S
N93         C104   1.368       .  A
C94        C4356   1.475       .  S
Co96       Cl103   2.466       .  S
C104       C4316   1.475       .  S
C107        N125   1.342       .  A
C107        C144   1.462       .  S
C107       C4409   1.466       .  S
N108        N125   1.321       .  A
N108        N130   1.316       .  A
N108       Co145   2.053       .  S
C109        N134   1.331       .  A
C109        C147   1.445       .  S
C109        H154   1.080       .  S
H110        C151   1.080       .  S
C111        N135   1.364       .  A
C111        C115   1.498       .  S
C111        H140   1.081       .  S
Co112       N130   2.087       .  S
Co112       N120   2.059       .  S
Co112       N152   2.056       .  S
Co112       N128   2.078       .  S
Co112      Cl156   2.463       .  S
N113        C151   1.338       .  A
N113        N120   1.315       .  A
N113       Co114   2.076       .  S
Co114       N117   2.027       .  S
Co114       N134   2.045       .  S
Co114       N121   2.065       .  S
Co114      Cl156   2.417       .  S
C115        N153   1.332       .  A
C115       C4279   1.500       .  S
N116        N123   1.322       .  A
N116        N146   1.336       .  A
N116       Co149   2.155       .  S
N117        N135   1.321       .  A
N117        N153   1.313       .  A
N118        C147   1.350       .  A
N118        N128   1.323       .  A
H119        C144   1.079       .  S
N120        N141   1.321       .  A
N121        N139   1.321       .  A
N121        N126   1.320       .  A
C122        N126   1.341       .  A
C122        C150   1.488       .  S
C122       C4286   1.502       .  S
N123        C138   1.326       .  A
N123       Co145   2.029       .  S
C124        N152   1.332       .  A
C124        C127   1.463       .  S
C124        H158   1.081       .  S
C127        N148   1.346       .  A
C127       C4359   1.472       .  S
N128        N134   1.315       .  A
N129        C155   1.317       .  A
N129        N131   1.321       .  A
N129       Co145   2.008       .  S
N130        C144   1.341       .  A
N131        N159   1.340       .  A
N131       Co149   2.163       .  S
H132        C155   1.081       .  S
H133        C150   1.081       .  S
N135       Co149   2.172       .  S
N136        N148   1.322       .  A
N136        N152   1.312       .  A
N136       Co145   2.063       .  S
C137        N141   1.347       .  A
C137        C151   1.461       .  S
C137       C4266   1.471       .  S
C138        C157   1.433       .  S
C138        H142   1.082       .  S
N139        C150   1.359       .  A
N139       Co149   2.149       .  S
C143        N159   1.370       .  A
C143        C155   1.422       .  S
C143       C4306   1.474       .  S
Co145      Cl156   2.420       .  S
N146        C157   1.368       .  A
C147       C4296   1.453       .  S
Co149      Cl156   2.483       .  S
C157       C4256   1.479       .  S
C160        N178   1.347       .  A
C160        C197   1.454       .  S
C160       C4439   1.462       .  S
N161        N178   1.321       .  A
N161        N183   1.315       .  A
N161       Co198   2.062       .  S
C162        N187   1.335       .  A
C162        C200   1.453       .  S
C162        H207   1.082       .  S
H163        C204   1.081       .  S
C164        N188   1.360       .  A
C164        C168   1.492       .  S
C164        H193   1.081       .  S
Co165       N183   2.051       .  S
Co165       N173   2.077       .  S
Co165       N205   2.067       .  S
Co165       N181   2.060       .  S
Co165      Cl209   2.450       .  S
N166        C204   1.337       .  A
N166        N173   1.315       .  A
N166       Co167   2.063       .  S
Co167       N170   2.031       .  S
Co167       N187   2.050       .  S
Co167       N174   2.026       .  S
Co167      Cl209   2.423       .  S
C168        N206   1.333       .  A
C168       C4199   1.492       .  S
N169        N176   1.322       .  A
N169        N199   1.338       .  A
N169       Co202   2.161       .  S
N170        N188   1.322       .  A
N170        N206   1.314       .  A
N171        C200   1.348       .  A
N171        N181   1.318       .  A
H172        C197   1.082   1_565  S
N173        N194   1.323       .  A
N174        N192   1.320       .  A
N174        N179   1.313       .  A
C175        N179   1.334       .  A
C175        C203   1.498       .  S
C175       C4236   1.503       .  S
N176        C191   1.330       .  A
N176       Co198   2.042       .  S
C177        N205   1.337       .  A
C177        C180   1.460       .  S
C177        H211   1.081       .  S
C180        N201   1.346       .  A
C180       C4226   1.470       .  S
N181        N187   1.312       .  A
N182        C208   1.326       .  A
N182        N184   1.321       .  A
N182       Co198   2.032       .  S
N183        C197   1.330       .  A
N184        N212   1.340       .  A
N184       Co202   2.173       .  S
H185        C208   1.082       .  S
H186        C203   1.079       .  S
N188       Co202   2.160       .  S
N189        N201   1.321       .  A
N189        N205   1.316       .  A
N189       Co198   2.069       .  S
C190        N194   1.351       .  A
C190        C204   1.453       .  S
C190       C4349   1.467       .  S
C191        C210   1.439       .  S
C191        H195   1.082       .  S
N192        C203   1.359       .  A
N192       Co202   2.159       .  S
C196        N212   1.373       .  A
C196        C208   1.432       .  S
C196       C4216   1.491       .  S
Co198      Cl209   2.429       .  S
N199        C210   1.368       .  A
C200       C4246   1.446       .  S
Co202      Cl209   2.475       .  S
C210       C4206   1.488       .  S
C213        N231   1.349       .  A
C213        C250   1.460       .  S
C213       C4339   1.461       .  S
N214        N231   1.320       .  A
N214        N236   1.314       .  A
N214       Co251   2.067       .  S
C215        N240   1.333       .  A
C215        C253   1.452       .  S
C215        H260   1.081       .  S
H216        C257   1.078       .  S
C217        N241   1.365       .  A
C217        C221   1.499       .  S
C217        H246   1.081       .  S
Co218       N236   2.057       .  S
Co218       N226   2.052       .  S
Co218       N258   2.050       .  S
Co218       N234   2.065       .  S
Co218      Cl262   2.467       .  S
N219        C257   1.333       .  A
N219        N226   1.312       .  A
N219       Co220   2.053       .  S
Co220       N223   2.033       .  S
Co220       N240   2.056       .  S
Co220       N227   2.026       .  S
Co220      Cl262   2.403       .  S
C221        N259   1.332       .  A
C221       C4149   1.502       .  S
N222        N229   1.320       .  A
N222        N252   1.340       .  A
N222       Co255   2.169       .  S
N223        N241   1.321       .  A
N223        N259   1.311       .  A
N224        C253   1.349       .  A
N224        N234   1.321       .  A
H225        C250   1.081       .  S
N226        N247   1.319       .  A
N227        N245   1.320       .  A
N227        N232   1.314       .  A
C228        N232   1.333       .  A
C228        C256   1.493       .  S
C228       C4166   1.495       .  S
N229        C244   1.323       .  A
N229       Co251   2.013       .  S
C230        N258   1.334       .  A
C230        C233   1.448       .  S
C230        H264   1.081   1_554  S
C233        N254   1.340       .  A
C233       C4249   1.441       .  S
N234        N240   1.314       .  A
N235        C261   1.326       .  A
N235        N237   1.323       .  A
N235       Co251   2.037       .  S
N236        C250   1.333       .  A
N237        N265   1.339       .  A
N237       Co255   2.167       .  S
H238        C261   1.081       .  S
H239        C256   1.081       .  S
N241       Co255   2.168       .  S
N242        N254   1.320       .  A
N242        N258   1.315       .  A
N242       Co251   2.054       .  S
C243        N247   1.348       .  A
C243        C257   1.450       .  S
C243       C4299   1.455       .  S
C244        C263   1.426       .  S
C244        H248   1.082       .  S
N245        C256   1.361       .  A
N245       Co255   2.159       .  S
C249        N265   1.370       .  A
C249        C261   1.433       .  S
C249       C4189   1.485       .  S
Co251      Cl262   2.413       .  S
N252        C263   1.372       .  A
C253       C4176   1.462       .  S
Co255      Cl262   2.484       .  S
C263       C4159   1.481       .  S
C266        N284   1.344       .  A
C266        C303   1.464       .  S
C266       C4269   1.473       .  S
N267        N284   1.319       .  A
N267        N289   1.314       .  A
N267       Co304   2.058       .  S
C268        N293   1.339       .  A
C268        C306   1.457       .  S
C268        H313   1.081       .  S
H269        C310   1.078       .  S
C270        N294   1.362       .  A
C270        C274   1.498       .  S
C270        H299   1.079       .  S
Co271       N289   2.069       .  S
Co271       N279   2.052       .  S
Co271       N311   2.046       .  S
Co271       N287   2.068       .  S
Co271      Cl315   2.467       .  S
N272        C310   1.340       .  A
N272        N279   1.313       .  A
N272       Co273   2.068       .  S
Co273       N276   2.034       .  S
Co273       N293   2.071       .  S
Co273       N280   2.033       .  S
Co273      Cl315   2.428       .  S
C274        N312   1.335       .  A
C274       C4116   1.506       .  S
N275        N282   1.319       .  A
N275        N305   1.338       .  A
N275       Co308   2.157       .  S
N276        N294   1.321       .  A
N276        N312   1.311       .  A
N277        C306   1.348       .  A
N277        N287   1.321       .  A
H278        C303   1.081       .  S
N279        N300   1.317       .  A
N280        N298   1.323       .  A
N280        N285   1.315       .  A
C281        N285   1.332       .  A
C281        C309   1.490       .  S
C281       C4126   1.487       .  S
N282        C297   1.326       .  A
N282       Co304   2.038       .  S
C283        N311   1.331       .  A
C283        C286   1.458       .  S
C283        H317   1.081       .  S
C286        N307   1.347       .  A
C286       C4179   1.468       .  S
N287        N293   1.315       .  A
N288        C314   1.328       .  A
N288        N290   1.321       .  A
N288       Co304   2.040       .  S
N289        C303   1.338       .  A
N290        N318   1.338       .  A
N290       Co308   2.161       .  S
H291        C314   1.081       .  S
H292        C309   1.081       .  S
N294       Co308   2.163       .  S
N295        N307   1.320       .  A
N295        N311   1.312       .  A
N295       Co304   2.062       .  S
C296        N300   1.346       .  A
C296        C310   1.459       .  S
C296       C4419   1.468       .  S
C297        C316   1.443       .  S
C297        H301   1.079       .  S
N298        C309   1.361       .  A
N298       Co308   2.168       .  S
C302        N318   1.370       .  A
C302        C314   1.440       .  S
C302       C4136   1.495       .  S
Co304      Cl315   2.419       .  S
N305        C316   1.371       .  A
C306       C4229   1.464       .  S
Co308      Cl315   2.467       .  S
C316       C4106   1.501       .  S
C319        N337   1.346       .  A
C319        C356   1.465       .  S
C319       C4089   1.472       .  S
N320        N337   1.319       .  A
N320        N342   1.315       .  A
N320       Co357   2.058       .  S
C321        N346   1.364       .  A
C321        C359   1.496       .  S
C321        H366   1.081       .  S
H322        C363   1.081       .  S
C323        N347   1.317       .  A
C323        C327   1.433       .  S
C323        H352   1.081       .  S
Co324       N342   2.079       .  S
Co324       N332   2.040       .  S
Co324       N364   2.059       .  S
Co324       N340   2.044       .  S
Co324      Cl368   2.416       .  S
N325        C363   1.357       .  A
N325        N332   1.324       .  A
N325       Co326   2.156       .  S
Co326       N329   2.175       .  S
Co326       N346   2.167       .  S
Co326       N333   2.180       .  S
Co326      Cl368   2.475       .  S
C327        N365   1.375       .  A
C327       C4066   1.498       .  S
N328        N335   1.314       .  A
N328        N358   1.323       .  A
N328       Co361   2.071       .  S
N329        N347   1.320       .  A
N329        N365   1.342       .  A
N330        C359   1.332       .  A
N330        N340   1.314       .  A
H331        C356   1.081       .  S
N332        N353   1.317       .  A
N333        N351   1.322       .  A
N333        N338   1.342       .  A
C334        N338   1.375       .  A
C334        C362   1.434       .  S
C334       C4029   1.498       .  S
N335        C350   1.337       .  A
N335       Co357   2.066       .  S
C336        N364   1.334       .  A
C336        C339   1.457       .  S
C336        H370   1.076       .  S
C339        N360   1.349       .  A
C339       C4036   1.472       .  S
N340        N346   1.323       .  A
N341        C367   1.334       .  A
N341        N343   1.313       .  A
N341       Co357   2.061       .  S
N342        C356   1.341       .  A
N343        N371   1.320       .  A
N343       Co361   2.050       .  S
H344        C367   1.080       .  S
H345        C362   1.081       .  S
N347       Co361   2.015       .  S
N348        N360   1.320       .  A
N348        N364   1.312       .  A
N348       Co357   2.060       .  S
C349        N353   1.335       .  A
C349        C363   1.485       .  S
C349       C4096   1.485       .  S
C350        C369   1.458       .  S
C350        H354   1.080       .  S
N351        C362   1.325       .  A
N351       Co361   2.030       .  S
C355        N371   1.344       .  A
C355        C367   1.456       .  S
C355       C4056   1.449       .  S
Co357      Cl368   2.473       .  S
N358        C369   1.347       .  A
C359       C4046   1.504       .  S
Co361      Cl368   2.422       .  S
C369       C4076   1.472       .  S
C372        N390   1.343       .  A
C372        C409   1.465       .  S
C372       C4086   1.474       .  S
N373        N390   1.319       .  A
N373        N395   1.315       .  A
N373       Co410   2.058       .  S
C374        N399   1.336       .  A
C374        C412   1.454       .  S
C374        H419   1.080       .  S
H375        C416   1.081       .  S
C376        N400   1.355       .  A
C376        C380   1.492       .  S
C376        H405   1.079       .  S
Co377       N395   2.074       .  S
Co377       N385   2.081       .  S
Co377       N417   2.072       .  S
Co377       N393   2.073       .  S
Co377      Cl421   2.467       .  S
N378        C416   1.341       .  A
N378        N385   1.316       .  A
N378       Co379   2.067       .  S
Co379       N382   2.026       .  S
Co379       N399   2.060       .  S
Co379       N386   2.032       .  S
Co379      Cl421   2.420       .  S
C380        N418   1.334       .  A
C380       C3959   1.494       .  S
N381        N388   1.319       .  A
N381        N411   1.339       .  A
N381       Co414   2.169       .  S
N382        N400   1.322       .  A
N382        N418   1.314       .  A
N383        C412   1.351       .  A
N383        N393   1.322       .  A
H384        C409   1.081       .  S
N385        N406   1.322       .  A
N386        N404   1.322       .  A
N386        N391   1.310       .  A
C387        N391   1.331       .  A
C387        C415   1.496       .  S
C387       C3966   1.496       .  S
N388        C403   1.328       .  A
N388       Co410   2.040       .  S
C389        N417   1.340       .  A
C389        C392   1.464       .  S
C389        H423   1.082       .  S
C392        N413   1.343       .  A
C392       C3996   1.453       .  S
N393        N399   1.314       .  A
N394        C420   1.324       .  A
N394        N396   1.318       .  A
N394       Co410   2.031       .  S
N395        C409   1.340       .  A
N396        N424   1.341       .  A
N396       Co414   2.164       .  S
H397        C420   1.080       .  S
H398        C415   1.081       .  S
N400       Co414   2.155       .  S
N401        N413   1.317       .  A
N401        N417   1.314       .  A
N401       Co410   2.052       .  S
C402        N406   1.350       .  A
C402        C416   1.456       .  S
C402       C3986   1.469       .  S
C403        C422   1.447       .  S
C403        H407   1.080       .  S
N404        C415   1.365       .  A
N404       Co414   2.164       .  S
C408        N424   1.375       .  A
C408        C420   1.438       .  S
C408       C4006   1.504       .  S
Co410      Cl421   2.407       .  S
N411        C422   1.373       .  A
C412       C3976   1.463       .  S
Co414      Cl421   2.489       .  S
C422       C4016   1.510       .  S
C425        N443   1.352       .  A
C425        C462   1.461       .  S
C425       C3906   1.475       .  S
N426        N443   1.323       .  A
N426        N448   1.314       .  A
N426       Co463   2.080       .  S
C427        N452   1.337       .  A
C427        C465   1.451       .  S
C427        H472   1.081       .  S
H428        C469   1.077       .  S
C429        N453   1.365       .  A
C429        C433   1.504       .  S
C429        H458   1.079       .  S
Co430       N448   2.059       .  S
Co430       N438   2.051       .  S
Co430       N470   2.043       .  S
Co430       N446   2.055       .  S
Co430      Cl474   2.466       .  S
N431        C469   1.340       .  A
N431        N438   1.311       .  A
N431       Co432   2.062       .  S
Co432       N435   2.022       .  S
Co432       N452   2.057       .  S
Co432       N439   2.029       .  S
Co432      Cl474   2.423       .  S
C433        N471   1.331       .  A
C433       C3896   1.509       .  S
N434        N441   1.323       .  A
N434        N464   1.339       .  A
N434       Co467   2.168       .  S
N435        N453   1.320       .  A
N435        N471   1.310       .  A
N436        C465   1.343       .  A
N436        N446   1.319       .  A
H437        C462   1.080       .  S
N438        N459   1.315       .  A
N439        N457   1.322       .  A
N439        N444   1.313       .  A
C440        N444   1.331       .  A
C440        C468   1.496       .  S
C440       C3949   1.497       .  S
N441        C456   1.327       .  A
N441       Co463   2.039       .  S
C442        N470   1.332       .  A
C442        C445   1.452       .  S
C442        H476   1.081       .  S
C445        N466   1.350       .  A
C445       C3936   1.468       .  S
N446        N452   1.313       .  A
N447        C473   1.328       .  A
N447        N449   1.323       .  A
N447       Co463   2.044       .  S
N448        C462   1.336       .  A
N449        N477   1.338       .  A
N449       Co467   2.165       .  S
H450        C473   1.082       .  S
H451        C468   1.081       .  S
N453       Co467   2.173       .  S
N454        N466   1.323       .  A
N454        N470   1.313       .  A
N454       Co463   2.073       .  S
C455        N459   1.348       .  A
C455        C469   1.462       .  S
C455       C4039   1.472       .  S
C456        C475   1.434       .  S
C456        H460   1.082       .  S
N457        C468   1.365       .  A
N457       Co467   2.173       .  S
C461        N477   1.370       .  A
C461        C473   1.440       .  S
C461       C3926   1.493       .  S
Co463      Cl474   2.420       .  S
N464        C475   1.371       .  A
C465       C3999   1.445       .  S
Co467      Cl474   2.472       .  S
C475       C3916   1.489       .  S
C478        N496   1.345       .  A
C478        C515   1.466       .  S
C478       C3989   1.478       .  S
N479        N496   1.321       .  A
N479        N501   1.315       .  A
N479       Co516   2.067       .  S
C480        N505   1.335       .  A
C480        C518   1.451       .  S
C480        H525   1.081       .  S
H481        C522   1.081       .  S
C482        N506   1.365       .  A
C482        C486   1.501       .  S
C482        H511   1.080       .  S
Co483       N501   2.076       .  S
Co483       N491   2.080       .  S
Co483       N523   2.079       .  S
Co483       N499   2.070       .  S
Co483      Cl527   2.474       .  S
N484        C522   1.338       .  A
N484        N491   1.316       .  A
N484       Co485   2.067       .  S
Co485       N488   2.030       .  S
Co485       N505   2.052       .  S
Co485       N492   2.043       .  S
Co485      Cl527   2.424       .  S
C486        N524   1.333       .  A
C486       C3836   1.508       .  S
N487        N494   1.322       .  A
N487        N517   1.341       .  A
N487       Co520   2.175       .  S
N488        N506   1.322       .  A
N488        N524   1.314       .  A
N489        C518   1.349       .  A
N489        N499   1.321       .  A
H490        C515   1.081   1_655  S
N491        N512   1.323       .  A
N492        N510   1.322       .  A
N492        N497   1.317       .  A
C493        N497   1.336       .  A
C493        C521   1.497       .  S
C493       C3859   1.507       .  S
N494        C509   1.327       .  A
N494       Co516   2.035       .  S
C495        N523   1.341       .  A
C495        C498   1.468       .  S
C495        H529   1.081   1_455  S
C498        N519   1.343       .  A
C498       C3889   1.477       .  S
N499        N505   1.315       .  A
N500        C526   1.327       .  A
N500        N502   1.321       .  A
N500       Co516   2.040       .  S
N501        C515   1.340       .  A
N502        N530   1.345       .  A
N502       Co520   2.188       .  S
H503        C526   1.080       .  S
H504        C521   1.080       .  S
N506       Co520   2.181       .  S
N507        N519   1.319       .  A
N507        N523   1.314       .  A
N507       Co516   2.057       .  S
C508        N512   1.352       .  A
C508        C522   1.455       .  S
C508       C4079   1.468       .  S
C509        C528   1.434       .  S
C509        H513   1.081       .  S
N510        C521   1.361       .  A
N510       Co520   2.169       .  S
C514        N530   1.377       .  A
C514        C526   1.439       .  S
C514       C3876   1.512       .  S
Co516      Cl527   2.421       .  S
N517        C528   1.373       .  A
C518       C3869   1.458       .  S
Co520      Cl527   2.477       .  S
C528       C3846   1.494       .  S
C531        N549   1.349       .  A
C531        C568   1.465       .  S
C531       C3939   1.471       .  S
N532        N549   1.318       .  A
N532        N554   1.313       .  A
N532       Co569   2.069       .  S
C533        N558   1.343       .  A
C533        C571   1.464       .  S
C533        H578   1.081       .  S
H534        C575   1.080       .  S
C535        N559   1.362       .  A
C535        C539   1.493       .  S
C535        H564   1.081       .  S
Co536       N554   2.062       .  S
Co536       N544   2.066       .  S
Co536       N576   2.063       .  S
Co536       N552   2.059       .  S
Co536      Cl580   2.468       .  S
N537        C575   1.338       .  A
N537        N544   1.313       .  A
N537       Co538   2.055       .  S
Co538       N541   2.054       .  S
Co538       N558   2.085       .  S
Co538       N545   2.018       .  S
Co538      Cl580   2.427       .  S
C539        N577   1.334       .  A
C539       C3786   1.496       .  S
N540        N547   1.316       .  A
N540        N570   1.343       .  A
N540       Co573   2.175       .  S
N541        N559   1.326       .  A
N541        N577   1.316       .  A
N542        C571   1.345       .  A
N542        N552   1.318       .  A
H543        C568   1.079       .  S
N544        N565   1.320       .  A
N545        N563   1.322       .  A
N545        N550   1.313       .  A
C546        N550   1.329       .  A
C546        C574   1.490       .  S
C546       C3829   1.483       .  S
N547        C562   1.323       .  A
N547       Co569   2.022       .  S
C548        N576   1.336       .  A
C548        C551   1.458       .  S
C548        H582   1.081   1_554  S
C551        N572   1.343       .  A
C551       C3819   1.459       .  S
N552        N558   1.316       .  A
N553        C579   1.329       .  A
N553        N555   1.322       .  A
N553       Co569   2.053       .  S
N554        C568   1.337       .  A
N555        N583   1.338       .  A
N555       Co573   2.163       .  S
H556        C579   1.080       .  S
H557        C574   1.081       .  S
N559       Co573   2.172       .  S
N560        N572   1.322       .  A
N560        N576   1.313       .  A
N560       Co569   2.054       .  S
C561        N565   1.349       .  A
C561        C575   1.451       .  S
C561       C3979   1.462       .  S
C562        C581   1.440       .  S
C562        H566   1.080       .  S
N563        C574   1.363       .  A
N563       Co573   2.168       .  S
C567        N583   1.371       .  A
C567        C579   1.445       .  S
C567       C3809   1.505       .  S
Co569      Cl580   2.415       .  S
N570        C581   1.377       .  A
C571       C3886   1.468       .  S
Co573      Cl580   2.472       .  S
C581       C3796   1.512       .  S
C584        N602   1.341       .  A
C584        C621   1.456       .  S
C584       C4059   1.450       .  S
N585        N602   1.318       .  A
N585        N607   1.315       .  A
N585       Co622   2.048       .  S
C586        N611   1.344       .  A
C586        C624   1.464       .  S
C586        H631   1.082       .  S
H587        C628   1.080       .  S
C588        N612   1.362       .  A
C588        C592   1.499       .  S
C588        H617   1.079       .  S
Co589       N607   2.064       .  S
Co589       N597   2.071       .  S
Co589       N629   2.064       .  S
Co589       N605   2.053       .  S
Co589      Cl633   2.457       .  S
N590        C628   1.338       .  A
N590        N597   1.315       .  A
N590       Co591   2.067       .  S
Co591       N594   2.047       .  S
Co591       N611   2.073       .  S
Co591       N598   2.047       .  S
Co591      Cl633   2.431       .  S
C592        N630   1.339       .  A
C592       C3746   1.513       .  S
N593        N600   1.321       .  A
N593        N623   1.338       .  A
N593       Co626   2.164       .  S
N594        N612   1.321       .  A
N594        N630   1.316       .  A
N595        C624   1.345       .  A
N595        N605   1.314       .  A
H596        C621   1.082       .  S
N597        N618   1.321       .  A
N598        N616   1.322       .  A
N598        N603   1.317       .  A
C599        N603   1.339       .  A
C599        C627   1.497       .  S
C599       C3776   1.509       .  S
N600        C615   1.329       .  A
N600       Co622   2.036       .  S
C601        N629   1.337       .  A
C601        C604   1.459       .  S
C601        H635   1.081       .  S
C604        N625   1.346       .  A
C604       C3866   1.461       .  S
N605        N611   1.314       .  A
N606        C632   1.320       .  A
N606        N608   1.317       .  A
N606       Co622   2.019       .  S
N607        C621   1.338       .  A
N608        N636   1.343       .  A
N608       Co626   2.180       .  S
H609        C632   1.078       .  S
H610        C627   1.079       .  S
N612       Co626   2.165       .  S
N613        N625   1.320       .  A
N613        N629   1.313       .  A
N613       Co622   2.060       .  S
C614        N618   1.350       .  A
C614        C628   1.458       .  S
C614       C3909   1.471       .  S
C615        C634   1.436       .  S
C615        H619   1.081       .  S
N616        C627   1.359       .  A
N616       Co626   2.162       .  S
C620        N636   1.378       .  A
C620        C632   1.441       .  S
C620       C3766   1.512       .  S
Co622      Cl633   2.427       .  S
N623        C634   1.369       .  A
C624       C3816   1.463       .  S
Co626      Cl633   2.464       .  S
C634       C3756   1.487       .  S
C637        N655   1.373       .  A
C637        C674   1.442       .  S
C637       C3736   1.504       .  S
N638        N655   1.341       .  A
N638        N660   1.319       .  A
N638       Co675   2.161       .  S
C639        N664   1.339       .  A
C639        C677   1.462       .  S
C639        H684   1.081       .  S
H640        C681   1.081       .  S
C641        N665   1.344       .  A
C641        C645   1.464       .  S
C641        H670   1.081       .  S
Co642       N660   2.043       .  S
Co642       N650   2.049       .  S
Co642       N682   2.026       .  S
Co642       N658   2.058       .  S
Co642      Cl686   2.409       .  S
N643        C681   1.342       .  A
N643        N650   1.315       .  A
N643       Co644   2.079       .  S
Co644       N647   2.061       .  S
Co644       N664   2.063       .  S
Co644       N651   2.078       .  S
Co644      Cl686   2.460       .  S
C645        N683   1.345       .  A
C645       C3686   1.465       .  S
N646        N653   1.324       .  A
N646        N676   1.316       .  A
N646       Co679   2.033       .  S
N647        N665   1.316       .  A
N647        N683   1.318       .  A
N648        C677   1.343       .  A
N648        N658   1.319       .  A
H649        C674   1.081       .  S
N650        N671   1.317       .  A
N651        N669   1.316       .  A
N651        N656   1.322       .  A
C652        N656   1.351       .  A
C652        C680   1.450       .  S
C652       C3699   1.459       .  S
N653        C668   1.359       .  A
N653       Co675   2.165       .  S
C654        N682   1.323       .  A
C654        C657   1.442       .  S
C654        H688   1.079       .  S
C657        N678   1.376       .  A
C657       C3716   1.510       .  S
N658        N664   1.314       .  A
N659        C685   1.362       .  A
N659        N661   1.323       .  A
N659       Co675   2.164       .  S
N660        C674   1.326       .  A
N661        N689   1.315       .  A
N661       Co679   2.041       .  S
H662        C685   1.081       .  S
H663        C680   1.081       .  S
N665       Co679   2.081       .  S
N666        N678   1.341       .  A
N666        N682   1.317       .  A
N666       Co675   2.173       .  S
C667        N671   1.340       .  A
C667        C681   1.468       .  S
C667       C3729   1.471       .  S
C668        C687   1.486       .  S
C668        H672   1.081       .  S
N669        C680   1.335       .  A
N669       Co679   2.055       .  S
C673        N689   1.334       .  A
C673        C685   1.492       .  S
C673       C3676   1.496       .  S
Co675      Cl686   2.482       .  S
N676        C687   1.333       .  A
C677       C3706   1.469       .  S
Co679      Cl686   2.433       .  S
C687       C3666   1.483       .  S
C690        N708   1.351       .  A
C690        C727   1.453       .  S
C690       C3709   1.462       .  S
N691        N708   1.323       .  A
N691        N713   1.314       .  A
N691       Co728   2.067       .  S
C692        N717   1.334       .  A
C692        C730   1.461       .  S
C692        H737   1.081       .  S
H693        C734   1.081       .  S
C694        N718   1.360       .  A
C694        C698   1.495       .  S
C694        H723   1.080       .  S
Co695       N713   2.058       .  S
Co695       N703   2.042       .  S
Co695       N735   2.058       .  S
Co695       N711   2.063       .  S
Co695      Cl739   2.450       .  S
N696        C734   1.347       .  A
N696        N703   1.313       .  A
N696       Co697   2.078       .  S
Co697       N700   2.046       .  S
Co697       N717   2.067       .  S
Co697       N704   2.036       .  S
Co697      Cl739   2.430       .  S
C698        N736   1.338       .  A
C698       C3636   1.505       .  S
N699        N706   1.321       .  A
N699        N729   1.340       .  A
N699       Co732   2.167       .  S
N700        N718   1.324       .  A
N700        N736   1.317       .  A
N701        C730   1.350       .  A
N701        N711   1.320       .  A
H702        C727   1.080       .  S
N703        N724   1.312       .  A
N704        N722   1.321       .  A
N704        N709   1.316       .  A
C705        N709   1.334       .  A
C705        C733   1.494       .  S
C705       C3626   1.498       .  S
N706        C721   1.327       .  A
N706       Co728   2.027       .  S
C707        N735   1.338       .  A
C707        C710   1.459       .  S
C707        H741   1.081       .  S
C710        N731   1.342       .  A
C710       C3606   1.461       .  S
N711        N717   1.315       .  A
N712        C738   1.324       .  A
N712        N714   1.323       .  A
N712       Co728   2.032       .  S
N713        C727   1.332       .  A
N714        N742   1.343       .  A
N714       Co732   2.184       .  S
H715        C738   1.081       .  S
H716        C733   1.081       .  S
N718       Co732   2.173       .  S
N719        N731   1.320       .  A
N719        N735   1.313       .  A
N719       Co728   2.061       .  S
C720        N724   1.337       .  A
C720        C734   1.467       .  S
C720       C3646   1.469       .  S
C721        C740   1.432       .  S
C721        H725   1.082       .  S
N722        C733   1.361       .  A
N722       Co732   2.162       .  S
C726        N742   1.376       .  A
C726        C738   1.429       .  S
C726       C3596   1.495       .  S
Co728      Cl739   2.425       .  S
N729        C740   1.370       .  A
C730       C3616   1.470       .  S
Co732      Cl739   2.475       .  S
C740       C3656   1.485       .  S
C743        N761   1.348       .  A
C743        C780   1.463       .  S
C743       C3576   1.481       .  S
N744        N761   1.323       .  A
N744        N766   1.312       .  A
N744       Co781   2.071       .  S
C745        N770   1.339       .  A
C745        C783   1.452       .  S
C745        H790   1.080       .  S
H746        C787   1.081       .  S
C747        N771   1.358       .  A
C747        C751   1.484       .  S
C747        H776   1.081       .  S
Co748       N766   2.057       .  S
Co748       N756   2.070       .  S
Co748       N788   2.066       .  S
Co748       N764   2.063       .  S
Co748      Cl792   2.450       .  S
N749        C787   1.340       .  A
N749        N756   1.316       .  A
N749       Co750   2.066       .  S
Co750       N753   2.031       .  S
Co750       N770   2.061       .  S
Co750       N757   2.037       .  S
Co750      Cl792   2.438       .  S
C751        N789   1.333       .  A
C751       C3589   1.480       .  S
N752        N759   1.323       .  A
N752        N782   1.338       .  A
N752       Co785   2.166       .  S
N753        N771   1.322       .  A
N753        N789   1.316       .  A
N754        C783   1.347       .  A
N754        N764   1.319       .  A
H755        C780   1.080       .  S
N756        N777   1.319       .  A
N757        N775   1.323       .  A
N757        N762   1.313       .  A
C758        N762   1.332       .  A
C758        C786   1.498       .  S
C758       C3556   1.502       .  S
N759        C774   1.327       .  A
N759       Co781   2.041       .  S
C760        N788   1.335       .  A
C760        C763   1.467       .  S
C760        H794   1.077       .  S
C763        N784   1.352       .  A
C763       C3536   1.479       .  S
N764        N770   1.314       .  A
N765        C791   1.329       .  A
N765        N767   1.321       .  A
N765       Co781   2.034       .  S
N766        C780   1.335       .  A
N767        N795   1.337       .  A
N767       Co785   2.151       .  S
H768        C791   1.082       .  S
H769        C786   1.081       .  S
N771       Co785   2.154       .  S
N772        N784   1.321       .  A
N772        N788   1.313       .  A
N772       Co781   2.071       .  S
C773        N777   1.347       .  A
C773        C787   1.459       .  S
C773       C3726   1.462       .  S
C774        C793   1.437       .  S
C774        H778   1.081       .  S
N775        C786   1.365       .  A
N775       Co785   2.176       .  S
C779        N795   1.368       .  A
C779        C791   1.435       .  S
C779       C3546   1.483       .  S
Co781      Cl792   2.426       .  S
N782        C793   1.370       .  A
C783       C3609   1.454       .  S
Co785      Cl792   2.473       .  S
C793       C3566   1.491       .  S
C796        N814   1.353       .  A
C796        C833   1.458       .  S
C796       C3649   1.470   1_455  S
N797        N814   1.325       .  A
N797        N819   1.314       .  A
N797       Co834   2.077       .  S
C798        N823   1.337       .  A
C798        C836   1.453       .  S
C798        H843   1.081       .  S
H799        C840   1.080       .  S
C800        N824   1.359       .  A
C800        C804   1.495       .  S
C800        H829   1.079       .  S
Co801       N819   2.051       .  S
Co801       N809   2.063       .  S
Co801       N841   2.066       .  S
Co801       N817   2.051       .  S
Co801      Cl845   2.450       .  S
N802        C840   1.337       .  A
N802        N809   1.314       .  A
N802       Co803   2.057       .  S
Co803       N806   2.034       .  S
Co803       N823   2.065       .  S
Co803       N810   2.018       .  S
Co803      Cl845   2.424       .  S
C804        N842   1.335       .  A
C804       C3476   1.500       .  S
N805        N812   1.321       .  A
N805        N835   1.337       .  A
N805       Co838   2.160       .  S
N806        N824   1.320       .  A
N806        N842   1.312       .  A
N807        C836   1.344       .  A
N807        N817   1.319       .  A
H808        C833   1.082   1_655  S
N809        N830   1.320       .  A
N810        N828   1.321       .  A
N810        N815   1.311       .  A
C811        N815   1.330       .  A
C811        C839   1.493       .  S
C811       C3496   1.489       .  S
N812        C827   1.327       .  A
N812       Co834   2.035       .  S
C813        N841   1.339       .  A
C813        C816   1.458       .  S
C813        H847   1.081   1_455  S
C816        N837   1.344       .  A
C816       C3526   1.452   1_455  S
N817        N823   1.314       .  A
N818        C844   1.331       .  A
N818        N820   1.322       .  A
N818       Co834   2.052       .  S
N819        C833   1.329       .  A
N820        N848   1.337       .  A
N820       Co838   2.151       .  S
H821        C844   1.081       .  S
H822        C839   1.081       .  S
N824       Co838   2.154       .  S
N825        N837   1.318       .  A
N825        N841   1.314       .  A
N825       Co834   2.055       .  S
C826        N830   1.347       .  A
C826        C840   1.453       .  S
C826       C3696   1.460       .  S
C827        C846   1.443       .  S
C827        H831   1.081       .  S
N828        C839   1.362       .  A
N828       Co838   2.164       .  S
C832        N848   1.368       .  A
C832        C844   1.440       .  S
C832       C3516   1.489       .  S
Co834      Cl845   2.426       .  S
N835        C846   1.370       .  A
C836       C3509   1.450       .  S
Co838      Cl845   2.474       .  S
C846       C3486   1.499       .  S
C849        N867   1.342       .  A
C849        C886   1.461       .  S
C849       C3689   1.467       .  S
N850        N867   1.320       .  A
N850        N872   1.314       .  A
N850       Co887   2.054       .  S
C851        N876   1.341       .  A
C851        C889   1.461       .  S
C851        H896   1.078       .  S
H852        C893   1.081       .  S
C853        N877   1.357       .  A
C853        C857   1.483       .  S
C853        H882   1.081       .  S
Co854       N872   2.074       .  S
Co854       N862   2.061       .  S
Co854       N894   2.063       .  S
Co854       N870   2.062       .  S
Co854      Cl898   2.462       .  S
N855        C893   1.344       .  A
N855        N862   1.316       .  A
N855       Co856   2.088       .  S
Co856       N859   2.034       .  S
Co856       N876   2.066       .  S
Co856       N863   2.048       .  S
Co856      Cl898   2.424       .  S
C857        N895   1.333       .  A
C857       C3439   1.477       .  S
N858        N865   1.321       .  A
N858        N888   1.340       .  A
N858       Co891   2.167       .  S
N859        N877   1.324       .  A
N859        N895   1.315       .  A
N860        C889   1.349       .  A
N860        N870   1.317       .  A
H861        C886   1.079   1_565  S
N862        N883   1.318       .  A
N863        N881   1.322       .  A
N863        N868   1.314       .  A
C864        N868   1.336       .  A
C864        C892   1.494       .  S
C864       C3456   1.501       .  S
N865        C880   1.324       .  A
N865       Co887   2.032       .  S
C866        N894   1.338       .  A
C866        C869   1.462       .  S
C866        H900   1.081       .  S
C869        N890   1.345       .  A
C869       C3506   1.456       .  S
N870        N876   1.313       .  A
N871        C897   1.322       .  A
N871        N873   1.318       .  A
N871       Co887   2.012       .  S
N872        C886   1.340       .  A
N873        N901   1.342       .  A
N873       Co891   2.169       .  S
H874        C897   1.082       .  S
H875        C892   1.080       .  S
N877       Co891   2.152       .  S
N878        N890   1.316       .  A
N878        N894   1.313       .  A
N878       Co887   2.053       .  S
C879        N883   1.346       .  A
C879        C893   1.467       .  S
C879       C3579   1.476   1_545  S
C880        C899   1.436       .  S
C880        H884   1.081       .  S
N881        C892   1.360       .  A
N881       Co891   2.155       .  S
C885        N901   1.374       .  A
C885        C897   1.425       .  S
C885       C3449   1.487       .  S
Co887      Cl898   2.411       .  S
N888        C899   1.372       .  A
C889       C3469   1.471       .  S
Co891      Cl898   2.481       .  S
C899       C3426   1.494       .  S
C902        N920   1.351       .  A
C902        C939   1.454       .  S
C902       C3539   1.472       .  S
N903        N920   1.325       .  A
N903        N925   1.315       .  A
N903       Co940   2.079       .  S
C904        N929   1.337       .  A
C904        C942   1.455       .  S
C904        H949   1.079       .  S
H905        C946   1.077       .  S
C906        N930   1.362       .  A
C906        C910   1.489       .  S
C906        H935   1.081       .  S
Co907       N925   2.046       .  S
Co907       N915   2.077       .  S
Co907       N947   2.067       .  S
Co907       N923   2.046       .  S
Co907      Cl951   2.472       .  S
N908        C946   1.333       .  A
N908        N915   1.312       .  A
N908       Co909   2.046       .  S
Co909       N912   2.049       .  S
Co909       N929   2.070       .  S
Co909       N916   2.020       .  S
Co909      Cl951   2.422       .  S
C910        N948   1.334       .  A
C910       C3386   1.491       .  S
N911        N918   1.322       .  A
N911        N941   1.339       .  A
N911       Co944   2.172       .  S
N912        N930   1.324       .  A
N912        N948   1.319       .  A
N913        C942   1.343       .  A
N913        N923   1.318       .  A
H914        C939   1.081       .  S
N915        N936   1.322       .  A
N916        N934   1.320       .  A
N916        N921   1.311       .  A
C917        N921   1.328       .  A
C917        C945   1.500       .  S
C917       C3406   1.504       .  S
N918        C933   1.326       .  A
N918       Co940   2.024       .  S
C919        N947   1.338       .  A
C919        C922   1.463       .  S
C919        H953   1.080       .  S
C922        N943   1.347       .  A
C922       C3466   1.471       .  S
N923        N929   1.314       .  A
N924        C950   1.329       .  A
N924        N926   1.323       .  A
N924       Co940   2.044       .  S
N925        C939   1.329       .  A
N926        N954   1.338       .  A
N926       Co944   2.166       .  S
H927        C950   1.082       .  S
H928        C945   1.081       .  S
N930       Co944   2.168       .  S
N931        N943   1.320       .  A
N931        N947   1.313       .  A
N931       Co940   2.059       .  S
C932        N936   1.353       .  A
C932        C946   1.452       .  S
C932       C3619   1.471       .  S
C933        C952   1.431       .  S
C933        H937   1.082       .  S
N934        C945   1.366       .  A
N934       Co944   2.178       .  S
C938        N954   1.370       .  A
C938        C950   1.435       .  S
C938       C3416   1.488       .  S
Co940      Cl951   2.425       .  S
N941        C952   1.370       .  A
C942       C3529   1.449       .  S
Co944      Cl951   2.468       .  S
C952       C3396   1.483       .  S
C955        N973   1.367       .  A
C955        C992   1.433       .  S
C955       C3499   1.479       .  S
N956        N973   1.337       .  A
N956        N978   1.322       .  A
N956       Co993   2.155       .  S
C957        N982   1.339       .  A
C957        C995   1.465       .  S
C957       H1002   1.081       .  S
H958        C999   1.081       .  S
C959        N983   1.337       .  A
C959        C963   1.454       .  S
C959        H988   1.081       .  S
Co960       N978   2.030       .  S
Co960       N968   2.070       .  S
Co960      N1000   2.024       .  S
Co960       N976   2.062       .  S
Co960     Cl1004   2.419       .  S
N961        C999   1.335       .  A
N961        N968   1.315       .  A
N961       Co962   2.064       .  S
Co962       N965   2.062       .  S
Co962       N982   2.069       .  S
Co962       N969   2.063       .  S
Co962     Cl1004   2.460       .  S
C963       N1001   1.346       .  A
C963       C3369   1.456       .  S
N964        N971   1.322       .  A
N964        N994   1.314       .  A
N964       Co997   2.033       .  S
N965        N983   1.315       .  A
N965       N1001   1.321       .  A
N966        C995   1.347       .  A
N966        N976   1.320       .  A
H967        C992   1.082       .  S
N968        N989   1.323       .  A
N969        N987   1.316       .  A
N969        N974   1.319       .  A
C970        N974   1.347       .  A
C970        C998   1.451       .  S
C970       C3346   1.454       .  S
N971        C986   1.363       .  A
N971       Co993   2.172       .  S
C972       N1000   1.323       .  A
C972        C975   1.427       .  S
C972       H1006   1.081       .  S
C975        N996   1.372       .  A
C975       C3336   1.484       .  S
N976        N982   1.313       .  A
N977       C1003   1.363       .  A
N977        N979   1.319       .  A
N977       Co993   2.163       .  S
N978        C992   1.326       .  A
N979       N1007   1.314       .  A
N979       Co997   2.036       .  S
H980       C1003   1.080       .  S
H981        C998   1.080       .  S
N983       Co997   2.063       .  S
N984        N996   1.341       .  A
N984       N1000   1.322       .  A
N984       Co993   2.173       .  S
C985        N989   1.349       .  A
C985        C999   1.457       .  S
C985       C3379   1.463       .  S
C986       C1005   1.496       .  S
C986        H990   1.081       .  S
N987        C998   1.334       .  A
N987       Co997   2.057       .  S
C991       N1007   1.335       .  A
C991       C1003   1.499       .  S
C991       C3326   1.507       .  S
Co993     Cl1004   2.484       .  S
N994       C1005   1.334       .  A
C995       C3359   1.471       .  S
Co997     Cl1004   2.417       .  S
C1005      C3446   1.499       .  S
C1008      N1026   1.366       .  A
C1008      C1045   1.434       .  S
C1008      C3569   1.479       .  S
N1009      N1026   1.337       .  A
N1009      N1031   1.321       .  A
N1009     Co1046   2.151       .  S
C1010      N1035   1.332       .  A
C1010      C1048   1.457       .  S
C1010      H1055   1.082       .  S
H1011      C1052   1.080       .  S
C1012      N1036   1.340       .  A
C1012      C1016   1.465       .  S
C1012      H1041   1.080       .  S
Co1013     N1031   2.036       .  S
Co1013     N1021   2.065       .  S
Co1013     N1053   2.034       .  S
Co1013     N1029   2.074       .  S
Co1013    Cl1057   2.432       .  S
N1014      C1052   1.335       .  A
N1014      N1021   1.315       .  A
N1014     Co1015   2.068       .  S
Co1015     N1018   2.057       .  S
Co1015     N1035   2.059       .  S
Co1015     N1022   2.076       .  S
Co1015    Cl1057   2.454       .  S
C1016      N1054   1.347       .  A
C1016      C3299   1.478       .  S
N1017      N1024   1.321       .  A
N1017      N1047   1.311       .  A
N1017     Co1050   2.020       .  S
N1018      N1036   1.313       .  A
N1018      N1054   1.319       .  A
N1019      C1048   1.349       .  A
N1019      N1029   1.325       .  A
H1020      C1045   1.082       .  S
N1021      N1042   1.322       .  A
N1022      N1040   1.314       .  A
N1022      N1027   1.323       .  A
C1023      N1027   1.352       .  A
C1023      C1051   1.445       .  S
C1023      C3289   1.454       .  S
N1024      C1039   1.361       .  A
N1024     Co1046   2.159       .  S
C1025      N1053   1.327       .  A
C1025      C1028   1.435       .  S
C1025      H1059   1.082       .  S
C1028      N1049   1.369       .  A
C1028      C3279   1.484       .  S
N1029      N1035   1.315       .  A
N1030      C1056   1.360       .  A
N1030      N1032   1.320       .  A
N1030     Co1046   2.154       .  S
N1031      C1045   1.326       .  A
N1032      N1060   1.318       .  A
N1032     Co1050   2.049       .  S
H1033      C1056   1.081       .  S
H1034      C1051   1.081       .  S
N1036     Co1050   2.076       .  S
N1037      N1049   1.337       .  A
N1037      N1053   1.323       .  A
N1037     Co1046   2.161       .  S
C1038      N1042   1.348       .  A
C1038      C1052   1.458       .  S
C1038      C3319   1.458       .  S
C1039      C1058   1.491       .  S
C1039      H1043   1.081       .  S
N1040      C1051   1.328       .  A
N1040     Co1050   2.036       .  S
C1044      N1060   1.338       .  A
C1044      C1056   1.492       .  S
C1044      C3266   1.503       .  S
Co1046    Cl1057   2.473       .  S
N1047      C1058   1.330       .  A
C1048      C3309   1.472       .  S
Co1050    Cl1057   2.421       .  S
C1058      C3436   1.485       .  S
C1061      N1079   1.348       .  A
C1061      C1098   1.456       .  S
C1061      C3236   1.459       .  S
N1062      N1079   1.319       .  A
N1062      N1084   1.315       .  A
N1062     Co1099   2.055       .  S
C1063      N1088   1.357       .  A
C1063      C1101   1.490       .  S
C1063      H1108   1.080       .  S
H1064      C1105   1.079       .  S
C1065      N1089   1.317       .  A
C1065      C1069   1.428       .  S
C1065      H1094   1.081       .  S
Co1066     N1084   2.072       .  S
Co1066     N1074   2.024       .  S
Co1066     N1106   2.064       .  S
Co1066     N1082   2.050       .  S
Co1066    Cl1110   2.422       .  S
N1067      C1105   1.363       .  A
N1067      N1074   1.319       .  A
N1067     Co1068   2.164       .  S
Co1068     N1071   2.173       .  S
Co1068     N1088   2.159       .  S
Co1068     N1075   2.163       .  S
Co1068    Cl1110   2.480       .  S
C1069      N1107   1.376       .  A
C1069      C4156   1.494       .  S
N1070      N1077   1.313       .  A
N1070      N1100   1.320       .  A
N1070     Co1103   2.059       .  S
N1071      N1089   1.320       .  A
N1071      N1107   1.343       .  A
N1072      C1101   1.340       .  A
N1072      N1082   1.318       .  A
H1073      C1098   1.079       .  S
N1074      N1095   1.311       .  A
N1075      N1093   1.319       .  A
N1075      N1080   1.338       .  A
C1076      N1080   1.371       .  A
C1076      C1104   1.437       .  S
C1076      C3479   1.492       .  S
N1077      C1092   1.339       .  A
N1077     Co1099   2.066       .  S
C1078      N1106   1.342       .  A
C1078      C1081   1.457       .  S
C1078      H1112   1.081       .  S
C1081      N1102   1.343       .  A
C1081      C3256   1.463       .  S
N1082      N1088   1.324       .  A
N1083      C1109   1.334       .  A
N1083      N1085   1.314       .  A
N1083     Co1099   2.054       .  S
N1084      C1098   1.337       .  A
N1085      N1113   1.319       .  A
N1085     Co1103   2.055       .  S
H1086      C1109   1.081       .  S
H1087      C1104   1.081       .  S
N1089     Co1103   2.018       .  S
N1090      N1102   1.317       .  A
N1090      N1106   1.315       .  A
N1090     Co1099   2.060       .  S
C1091      N1095   1.331       .  A
C1091      C1105   1.501       .  S
C1091      C4329   1.505       .  S
C1092      C1111   1.461       .  S
C1092      H1096   1.081       .  S
N1093      C1104   1.324       .  A
N1093     Co1103   2.020       .  S
C1097      N1113   1.346       .  A
C1097      C1109   1.455       .  S
C1097      C3226   1.455       .  S
Co1099    Cl1110   2.457       .  S
N1100      C1111   1.342       .  A
C1101      C3679   1.499       .  S
Co1103    Cl1110   2.411       .  S
C1111      C3249   1.466       .  S
C1114      N1132   1.354       .  A
C1114      C1151   1.451       .  S
C1114      C3219   1.469       .  S
N1115      N1132   1.324       .  A
N1115      N1137   1.313       .  A
N1115     Co1152   2.084       .  S
C1116      N1141   1.366       .  A
C1116      C1154   1.497       .  S
C1116      H1161   1.081       .  S
H1117      C1158   1.081       .  S
C1118      N1142   1.326       .  A
C1118      C1122   1.444       .  S
C1118      H1147   1.080       .  S
Co1119     N1137   2.048       .  S
Co1119     N1127   2.042       .  S
Co1119     N1159   2.082       .  S
Co1119     N1135   2.011       .  S
Co1119    Cl1163   2.426       .  S
N1120      C1158   1.362       .  A
N1120      N1127   1.323       .  A
N1120     Co1121   2.165       .  S
Co1121     N1124   2.171       .  S
Co1121     N1141   2.175       .  S
Co1121     N1128   2.153       .  S
Co1121    Cl1163   2.472       .  S
C1122      N1160   1.375       .  A
C1122      C3489   1.509       .  S
N1123      N1130   1.314       .  A
N1123      N1153   1.318       .  A
N1123     Co1156   2.065       .  S
N1124      N1142   1.319       .  A
N1124      N1160   1.340       .  A
N1125      C1154   1.326       .  A
N1125      N1135   1.309       .  A
H1126      C1151   1.081       .  S
N1127      N1148   1.314       .  A
N1128      N1146   1.322       .  A
N1128      N1133   1.337       .  A
C1129      N1133   1.368       .  A
C1129      C1157   1.442       .  S
C1129      C3186   1.491       .  S
N1130      C1145   1.334       .  A
N1130     Co1152   2.047       .  S
C1131      N1159   1.343       .  A
C1131      C1134   1.465       .  S
C1131      H1165   1.081       .  S
C1134      N1155   1.345       .  A
C1134      C3206   1.465       .  S
N1135      N1141   1.322       .  A
N1136      C1162   1.336       .  A
N1136      N1138   1.314       .  A
N1136     Co1152   2.069       .  S
N1137      C1151   1.336       .  A
N1138      N1166   1.321       .  A
N1138     Co1156   2.061       .  S
H1139      C1162   1.082       .  S
H1140      C1157   1.082       .  S
N1142     Co1156   2.035       .  S
N1143      N1155   1.318       .  A
N1143      N1159   1.313       .  A
N1143     Co1152   2.051       .  S
C1144      N1148   1.334       .  A
C1144      C1158   1.493       .  S
C1144      C3639   1.497       .  S
C1145      C1164   1.456       .  S
C1145      H1149   1.081       .  S
N1146      C1157   1.330       .  A
N1146     Co1156   2.048       .  S
C1150      N1166   1.347       .  A
C1150      C1162   1.459       .  S
C1150      C3199   1.455       .  S
Co1152    Cl1163   2.464       .  S
N1153      C1164   1.345       .  A
C1154      C3176   1.488       .  S
Co1156    Cl1163   2.417       .  S
C1164      C3229   1.462       .  S
C1167      N1185   1.369       .  A
C1167      C1204   1.432       .  S
C1167      C3969   1.482       .  S
N1168      N1185   1.337       .  A
N1168      N1190   1.321       .  A
N1168     Co1205   2.158       .  S
C1169      N1194   1.335       .  A
C1169      C1207   1.459       .  S
C1169      H1214   1.081       .  S
H1170      C1211   1.079       .  S
C1171      N1195   1.339       .  A
C1171      C1175   1.455       .  S
C1171      H1200   1.081       .  S
Co1172     N1190   2.027       .  S
Co1172     N1180   2.078       .  S
Co1172     N1212   2.045       .  S
Co1172     N1188   2.062       .  S
Co1172    Cl1216   2.422       .  S
N1173      C1211   1.333       .  A
N1173      N1180   1.313       .  A
N1173     Co1174   2.059       .  S
Co1174     N1177   2.041       .  S
Co1174     N1194   2.047       .  S
Co1174     N1181   2.065       .  S
Co1174    Cl1216   2.462       .  S
C1175      N1213   1.341       .  A
C1175      C3146   1.441       .  S
N1176      N1183   1.324       .  A
N1176      N1206   1.313       .  A
N1176     Co1209   2.032       .  S
N1177      N1195   1.312       .  A
N1177      N1213   1.314       .  A
N1178      C1207   1.345       .  A
N1178      N1188   1.319       .  A
H1179      C1204   1.082       .  S
N1180      N1201   1.324       .  A
N1181      N1199   1.313       .  A
N1181      N1186   1.317       .  A
C1182      N1186   1.349       .  A
C1182      C1210   1.463       .  S
C1182      C3296   1.476       .  S
N1183      C1198   1.366       .  A
N1183     Co1205   2.180       .  S
C1184      N1212   1.327       .  A
C1184      C1187   1.438       .  S
C1184      H1218   1.081       .  S
C1187      N1208   1.371       .  A
C1187      C3669   1.493       .  S
N1188      N1194   1.312       .  A
N1189      C1215   1.360       .  A
N1189      N1191   1.322       .  A
N1189     Co1205   2.162       .  S
N1190      C1204   1.326       .  A
N1191      N1219   1.314       .  A
N1191     Co1209   2.026       .  S
H1192      C1215   1.081       .  S
H1193      C1210   1.077       .  S
N1195     Co1209   2.059       .  S
N1196      N1208   1.339       .  A
N1196      N1212   1.324       .  A
N1196     Co1205   2.170       .  S
C1197      N1201   1.354       .  A
C1197      C1211   1.459       .  S
C1197      C3156   1.474       .  S
C1198      C1217   1.497       .  S
C1198      H1202   1.081       .  S
N1199      C1210   1.340       .  A
N1199     Co1209   2.064       .  S
C1203      N1219   1.331       .  A
C1203      C1215   1.489       .  S
C1203      C3429   1.486       .  S
Co1205    Cl1216   2.465       .  S
N1206      C1217   1.331       .  A
C1207      C3169   1.469       .  S
Co1209    Cl1216   2.430       .  S
C1217      C3789   1.497       .  S
C1220      N1238   1.345       .  A
C1220      C1257   1.463       .  S
C1220      C3116   1.474       .  S
N1221      N1238   1.319       .  A
N1221      N1243   1.316       .  A
N1221     Co1258   2.067       .  S
C1222      N1247   1.364       .  A
C1222      C1260   1.498       .  S
C1222      H1267   1.080       .  S
H1223      C1264   1.080       .  S
C1224      N1248   1.329       .  A
C1224      C1228   1.443       .  S
C1224      H1253   1.081       .  S
Co1225     N1243   2.082       .  S
Co1225     N1233   2.037       .  S
Co1225     N1265   2.051       .  S
Co1225     N1241   2.047       .  S
Co1225    Cl1269   2.421       .  S
N1226      C1264   1.360       .  A
N1226      N1233   1.322       .  A
N1226     Co1227   2.167       .  S
Co1227     N1230   2.163       .  S
Co1227     N1247   2.155       .  S
Co1227     N1234   2.175       .  S
Co1227    Cl1269   2.477       .  S
C1228      N1266   1.369       .  A
C1228      C3759   1.495       .  S
N1229      N1236   1.315       .  A
N1229      N1259   1.327       .  A
N1229     Co1262   2.083       .  S
N1230      N1248   1.323       .  A
N1230      N1266   1.337       .  A
N1231      C1260   1.335       .  A
N1231      N1241   1.313       .  A
H1232      C1257   1.082       .  S
N1233      N1254   1.317       .  A
N1234      N1252   1.321       .  A
N1234      N1239   1.342       .  A
C1235      N1239   1.373       .  A
C1235      C1263   1.432       .  S
C1235      C3389   1.493       .  S
N1236      C1251   1.331       .  A
N1236     Co1258   2.057       .  S
C1237      N1265   1.330       .  A
C1237      C1240   1.450       .  S
C1237      H1271   1.079       .  S
C1240      N1261   1.354       .  A
C1240      C3136   1.467       .  S
N1241      N1247   1.320       .  A
N1242      C1268   1.335       .  A
N1242      N1244   1.315       .  A
N1242     Co1258   2.063       .  S
N1243      C1257   1.344       .  A
N1244      N1272   1.321       .  A
N1244     Co1262   2.069       .  S
H1245      C1268   1.081       .  S
H1246      C1263   1.080       .  S
N1248     Co1262   2.043       .  S
N1249      N1261   1.324       .  A
N1249      N1265   1.313       .  A
N1249     Co1258   2.070       .  S
C1250      N1254   1.339       .  A
C1250      C1264   1.496       .  S
C1250      C4026   1.507       .  S
C1251      C1270   1.452       .  S
C1251      H1255   1.080       .  S
N1252      C1263   1.329       .  A
N1252     Co1262   2.043       .  S
C1256      N1272   1.344       .  A
C1256      C1268   1.463       .  S
C1256      C3106   1.469       .  S
Co1258    Cl1269   2.459       .  S
N1259      C1270   1.353       .  A
C1260      C3629   1.508       .  S
Co1262    Cl1269   2.434       .  S
C1270      C3126   1.472       .  S
C1273      N1291   1.371       .  A
C1273      C1310   1.427       .  S
C1273      C4319   1.481       .  S
N1274      N1291   1.340       .  A
N1274      N1296   1.320       .  A
N1274     Co1311   2.166       .  S
C1275      N1300   1.342       .  A
C1275      C1313   1.461       .  S
C1275      H1320   1.082       .  S
H1276      C1317   1.081       .  S
C1277      N1301   1.341       .  A
C1277      C1281   1.460       .  S
C1277      H1306   1.081       .  S
Co1278     N1296   2.021       .  S
Co1278     N1286   2.041       .  S
Co1278     N1318   2.016       .  S
Co1278     N1294   2.056       .  S
Co1278    Cl1322   2.415       .  S
N1279      C1317   1.337       .  A
N1279      N1286   1.312       .  A
N1279     Co1280   2.065       .  S
Co1280     N1283   2.066       .  S
Co1280     N1300   2.078       .  S
Co1280     N1287   2.062       .  S
Co1280    Cl1322   2.469       .  S
C1281      N1319   1.347       .  A
C1281      C3069   1.464       .  S
N1282      N1289   1.322       .  A
N1282      N1312   1.314       .  A
N1282     Co1315   2.036       .  S
N1283      N1301   1.316       .  A
N1283      N1319   1.320       .  A
N1284      C1313   1.341       .  A
N1284      N1294   1.320       .  A
H1285      C1310   1.081       .  S
N1286      N1307   1.317       .  A
N1287      N1305   1.315       .  A
N1287      N1292   1.319       .  A
C1288      N1292   1.348       .  A
C1288      C1316   1.454       .  S
C1288      C3086   1.462       .  S
N1289      C1304   1.358       .  A
N1289     Co1311   2.151       .  S
C1290      N1318   1.317       .  A
C1290      C1293   1.439       .  S
C1290      H1324   1.078       .  S
C1293      N1314   1.375       .  A
C1293      C3956   1.504       .  S
N1294      N1300   1.315       .  A
N1295      C1321   1.362       .  A
N1295      N1297   1.322       .  A
N1295     Co1311   2.164       .  S
N1296      C1310   1.323       .  A
N1297      N1325   1.316       .  A
N1297     Co1315   2.046       .  S
H1298      C1321   1.081       .  S
H1299      C1316   1.080       .  S
N1301     Co1315   2.077       .  S
N1302      N1314   1.340       .  A
N1302      N1318   1.317       .  A
N1302     Co1311   2.163       .  S
C1303      N1307   1.338       .  A
C1303      C1317   1.464       .  S
C1303      C3076   1.463       .  S
C1304      C1323   1.486       .  S
C1304      H1308   1.081       .  S
N1305      C1316   1.335       .  A
N1305     Co1315   2.056       .  S
C1309      N1325   1.336       .  A
C1309      C1321   1.494       .  S
C1309      C3849   1.502       .  S
Co1311    Cl1322   2.473       .  S
N1312      C1323   1.333       .  A
C1313      C3096   1.461       .  S
Co1315    Cl1322   2.418       .  S
C1323      C4196   1.484       .  S
C1326      N1344   1.348       .  A
C1326      C1363   1.449       .  S
C1326      C3059   1.454       .  S
N1327      N1344   1.321       .  A
N1327      N1349   1.315       .  A
N1327     Co1364   2.068       .  S
C1328      N1353   1.364       .  A
C1328      C1366   1.497       .  S
C1328      H1373   1.081       .  S
H1329      C1370   1.080       .  S
C1330      N1354   1.327       .  A
C1330      C1334   1.440       .  S
C1330      H1359   1.080       .  S
Co1331     N1349   2.052       .  S
Co1331     N1339   2.039       .  S
Co1331     N1371   2.072       .  S
Co1331     N1347   2.018       .  S
Co1331    Cl1375   2.415       .  S
N1332      C1370   1.361       .  A
N1332      N1339   1.322       .  A
N1332     Co1333   2.158       .  S
Co1333     N1336   2.176       .  S
Co1333     N1353   2.171       .  S
Co1333     N1340   2.153       .  S
Co1333    Cl1375   2.487       .  S
C1334      N1372   1.376       .  A
C1334      C3799   1.507       .  S
N1335      N1342   1.315       .  A
N1335      N1365   1.316       .  A
N1335     Co1368   2.053       .  S
N1336      N1354   1.320       .  A
N1336      N1372   1.341       .  A
N1337      C1366   1.330       .  A
N1337      N1347   1.310       .  A
H1338      C1363   1.081       .  S
N1339      N1360   1.313       .  A
N1340      N1358   1.322       .  A
N1340      N1345   1.337       .  A
C1341      N1345   1.366       .  A
C1341      C1369   1.433       .  S
C1341      C3026   1.477       .  S
N1342      C1357   1.339       .  A
N1342     Co1364   2.063       .  S
C1343      N1371   1.340       .  A
C1343      C1346   1.459       .  S
C1343      H1377   1.081       .  S
C1346      N1367   1.346       .  A
C1346      C3036   1.462       .  S
N1347      N1353   1.321       .  A
N1348      C1374   1.333       .  A
N1348      N1350   1.314       .  A
N1348     Co1364   2.051       .  S
N1349      C1363   1.334       .  A
N1350      N1378   1.320       .  A
N1350     Co1368   2.058       .  S
H1351      C1374   1.080       .  S
H1352      C1369   1.081       .  S
N1354     Co1368   2.034       .  S
N1355      N1367   1.320       .  A
N1355      N1371   1.314       .  A
N1355     Co1364   2.061       .  S
C1356      N1360   1.335       .  A
C1356      C1370   1.496       .  S
C1356      C3929   1.502       .  S
C1357      C1376   1.458       .  S
C1357      H1361   1.081       .  S
N1358      C1369   1.328       .  A
N1358     Co1368   2.036       .  S
C1362      N1378   1.344       .  A
C1362      C1374   1.454       .  S
C1362      C3286   1.459       .  S
Co1364    Cl1375   2.463       .  S
N1365      C1376   1.340       .  A
C1366      C3049   1.495       .  S
Co1368    Cl1375   2.409       .  S
C1376      C3149   1.445       .  S
C1379      N1397   1.370       .  A
C1379      C1416   1.432       .  S
C1379      C4069   1.484       .  S
N1380      N1397   1.338       .  A
N1380      N1402   1.322       .  A
N1380     Co1417   2.161       .  S
C1381      N1406   1.337       .  A
C1381      C1419   1.458       .  S
C1381      H1426   1.081       .  S
H1382      C1423   1.081       .  S
C1383      N1407   1.333       .  A
C1383      C1387   1.454       .  S
C1383      H1412   1.081       .  S
Co1384     N1402   2.027       .  S
Co1384     N1392   2.049       .  S
Co1384     N1424   2.020       .  S
Co1384     N1400   2.057       .  S
Co1384    Cl1428   2.419       .  S
N1385      C1423   1.335       .  A
N1385      N1392   1.314       .  A
N1385     Co1386   2.066       .  S
Co1386     N1389   2.069       .  S
Co1386     N1406   2.067       .  S
Co1386     N1393   2.061       .  S
Co1386    Cl1428   2.472       .  S
C1387      N1425   1.350       .  A
C1387      C3089   1.465       .  S
N1388      N1395   1.319       .  A
N1388      N1418   1.315       .  A
N1388     Co1421   2.040       .  S
N1389      N1407   1.315       .  A
N1389      N1425   1.322       .  A
N1390      C1419   1.345       .  A
N1390      N1400   1.319       .  A
H1391      C1416   1.081       .  S
N1392      N1413   1.321       .  A
N1393      N1411   1.315       .  A
N1393      N1398   1.321       .  A
C1394      N1398   1.347       .  A
C1394      C1422   1.455       .  S
C1394      C2996   1.461       .  S
N1395      C1410   1.362       .  A
N1395     Co1417   2.162       .  S
C1396      N1424   1.323       .  A
C1396      C1399   1.429       .  S
C1396      H1430   1.082       .  S
C1399      N1420   1.369       .  A
C1399      C3006   1.477       .  S
N1400      N1406   1.315       .  A
N1401      C1427   1.359       .  A
N1401      N1403   1.322       .  A
N1401     Co1417   2.158       .  S
N1402      C1416   1.324       .  A
N1403      N1431   1.315       .  A
N1403     Co1421   2.042       .  S
H1404      C1427   1.080       .  S
H1405      C1422   1.081       .  S
N1407     Co1421   2.059       .  S
N1408      N1420   1.338       .  A
N1408      N1424   1.321       .  A
N1408     Co1417   2.159       .  S
C1409      N1413   1.341       .  A
C1409      C1423   1.462       .  S
C1409      C3016   1.466       .  S
C1410      C1429   1.500       .  S
C1410      H1414   1.079       .  S
N1411      C1422   1.337       .  A
N1411     Co1421   2.064       .  S
C1415      N1431   1.337       .  A
C1415      C1427   1.493       .  S
C1415      C2986   1.500       .  S
Co1417    Cl1428   2.471       .  S
N1418      C1429   1.337       .  A
C1419      C3349   1.455       .  S
Co1421    Cl1428   2.416       .  S
C1429      C3839   1.512       .  S
C1432      N1450   1.349       .  A
C1432      C1469   1.455       .  S
C1432      C2969   1.465       .  S
N1433      N1450   1.318       .  A
N1433      N1455   1.312       .  A
N1433     Co1470   2.061       .  S
C1434      N1459   1.360       .  A
C1434      C1472   1.490       .  S
C1434      H1479   1.081       .  S
H1435      C1476   1.078       .  S
C1436      N1460   1.326       .  A
C1436      C1440   1.429       .  S
C1436      H1465   1.081       .  S
Co1437     N1455   2.048       .  S
Co1437     N1445   2.061       .  S
Co1437     N1477   2.085       .  S
Co1437     N1453   2.023       .  S
Co1437    Cl1481   2.422       .  S
N1438      C1476   1.359       .  A
N1438      N1445   1.321       .  A
N1438     Co1439   2.159       .  S
Co1439     N1442   2.164       .  S
Co1439     N1459   2.160       .  S
Co1439     N1446   2.153       .  S
Co1439    Cl1481   2.466       .  S
C1440      N1478   1.370       .  A
C1440      C3826   1.481       .  S
N1441      N1448   1.314       .  A
N1441      N1471   1.319       .  A
N1441     Co1474   2.065       .  S
N1442      N1460   1.321       .  A
N1442      N1478   1.340       .  A
N1443      C1472   1.332       .  A
N1443      N1453   1.313       .  A
H1444      C1469   1.077       .  S
N1445      N1466   1.319       .  A
N1446      N1464   1.323       .  A
N1446      N1451   1.335       .  A
C1447      N1451   1.365       .  A
C1447      C1475   1.437       .  S
C1447      C2956   1.475       .  S
N1448      C1463   1.337       .  A
N1448     Co1470   2.062       .  S
C1449      N1477   1.339       .  A
C1449      C1452   1.462       .  S
C1449      H1483   1.081       .  S
C1452      N1473   1.347       .  A
C1452      C2936   1.467       .  S
N1453      N1459   1.321       .  A
N1454      C1480   1.339       .  A
N1454      N1456   1.315       .  A
N1454     Co1470   2.069       .  S
N1455      C1469   1.334       .  A
N1456      N1484   1.322       .  A
N1456     Co1474   2.066       .  S
H1457      C1480   1.082       .  S
H1458      C1475   1.081       .  S
N1460     Co1474   2.029       .  S
N1461      N1473   1.320       .  A
N1461      N1477   1.316       .  A
N1461     Co1470   2.058       .  S
C1462      N1466   1.342       .  A
C1462      C1476   1.498       .  S
C1462      C3879   1.517       .  S
C1463      C1482   1.463       .  S
C1463      H1467   1.081       .  S
N1464      C1475   1.330       .  A
N1464     Co1474   2.044       .  S
C1468      N1484   1.346       .  A
C1468      C1480   1.459       .  S
C1468      C3209   1.470       .  S
Co1470    Cl1481   2.468       .  S
N1471      C1482   1.346       .  A
C1472      C2946   1.487       .  S
Co1474    Cl1481   2.427       .  S
C1482      C2979   1.472       .  S
C1485      N1503   1.372       .  A
C1485      C1522   1.429       .  S
C1485      C3046   1.485       .  S
N1486      N1503   1.340       .  A
N1486      N1508   1.322       .  A
N1486     Co1523   2.167       .  S
C1487      N1512   1.336       .  A
C1487      C1525   1.457       .  S
C1487      H1532   1.081       .  S
H1488      C1529   1.082       .  S
C1489      N1513   1.329       .  A
C1489      C1493   1.446       .  S
C1489      H1518   1.077       .  S
Co1490     N1508   2.027       .  S
Co1490     N1498   2.062       .  S
Co1490     N1530   2.031       .  S
Co1490     N1506   2.071       .  S
Co1490    Cl1534   2.418       .  S
N1491      C1529   1.338       .  A
N1491      N1498   1.315       .  A
N1491     Co1492   2.065       .  S
Co1492     N1495   2.073       .  S
Co1492     N1512   2.063       .  S
Co1492     N1499   2.060       .  S
Co1492    Cl1534   2.461       .  S
C1493      N1531   1.353       .  A
C1493      C2916   1.461       .  S
N1494      N1501   1.319       .  A
N1494      N1524   1.312       .  A
N1494     Co1527   2.030       .  S
N1495      N1513   1.313       .  A
N1495      N1531   1.323       .  A
N1496      C1525   1.348       .  A
N1496      N1506   1.323       .  A
H1497      C1522   1.082       .  S
N1498      N1519   1.319       .  A
N1499      N1517   1.314       .  A
N1499      N1504   1.320       .  A
C1500      N1504   1.346       .  A
C1500      C1528   1.453       .  S
C1500      C2906   1.453       .  S
N1501      C1516   1.367       .  A
N1501     Co1523   2.177       .  S
C1502      N1530   1.326       .  A
C1502      C1505   1.439       .  S
C1502      H1536   1.081       .  S
C1505      N1526   1.369       .  A
C1505      C2889   1.491       .  S
N1506      N1512   1.315       .  A
N1507      C1533   1.362       .  A
N1507      N1509   1.320       .  A
N1507     Co1523   2.165       .  S
N1508      C1522   1.323       .  A
N1509      N1537   1.312       .  A
N1509     Co1527   2.025       .  S
H1510      C1533   1.080       .  S
H1511      C1528   1.081       .  S
N1513     Co1527   2.045       .  S
N1514      N1526   1.337       .  A
N1514      N1530   1.322       .  A
N1514     Co1523   2.162       .  S
C1515      N1519   1.343       .  A
C1515      C1529   1.461       .  S
C1515      C2926   1.466       .  S
C1516      C1535   1.505       .  S
C1516      H1520   1.080       .  S
N1517      C1528   1.336       .  A
N1517     Co1527   2.058       .  S
C1521      N1537   1.333       .  A
C1521      C1533   1.496       .  S
C1521      C2949   1.498       .  S
Co1523    Cl1534   2.481       .  S
N1524      C1535   1.331       .  A
C1525      C2896   1.472       .  S
Co1527    Cl1534   2.415       .  S
C1535      C2876   1.513       .  S
C1538      N1556   1.347       .  A
C1538      C1575   1.457       .  S
C1538      C3139   1.464       .  S
N1539      N1556   1.317       .  A
N1539      N1561   1.313       .  A
N1539     Co1576   2.055       .  S
C1540      N1565   1.363       .  A
C1540      C1578   1.490       .  S
C1540      H1585   1.081       .  S
H1541      C1582   1.081       .  S
C1542      N1566   1.324       .  A
C1542      C1546   1.431       .  S
C1542      H1571   1.082       .  S
Co1543     N1561   2.064       .  S
Co1543     N1551   2.034       .  S
Co1543     N1583   2.067       .  S
Co1543     N1559   2.036       .  S
Co1543    Cl1587   2.434       .  S
N1544      C1582   1.364       .  A
N1544      N1551   1.322       .  A
N1544     Co1545   2.167       .  S
Co1545     N1548   2.169       .  S
Co1545     N1565   2.176       .  S
Co1545     N1552   2.155       .  S
Co1545    Cl1587   2.477       .  S
C1546      N1584   1.374       .  A
C1546      C3559   1.493       .  S
N1547      N1554   1.314       .  A
N1547      N1577   1.319       .  A
N1547     Co1580   2.059       .  S
N1548      N1566   1.320       .  A
N1548      N1584   1.342       .  A
N1549      C1578   1.332       .  A
N1549      N1559   1.317       .  A
H1550      C1575   1.078       .  S
N1551      N1572   1.313       .  A
N1552      N1570   1.321       .  A
N1552      N1557   1.335       .  A
C1553      N1557   1.369       .  A
C1553      C1581   1.445       .  S
C1553      C2826   1.497       .  S
N1554      C1569   1.337       .  A
N1554     Co1576   2.066       .  S
C1555      N1583   1.339       .  A
C1555      C1558   1.455       .  S
C1555      H1589   1.081       .  S
C1558      N1579   1.346       .  A
C1558      C2846   1.460       .  S
N1559      N1565   1.324       .  A
N1560      C1586   1.332       .  A
N1560      N1562   1.314       .  A
N1560     Co1576   2.053       .  S
N1561      C1575   1.339       .  A
N1562      N1590   1.323       .  A
N1562     Co1580   2.068       .  S
H1563      C1586   1.081       .  S
H1564      C1581   1.081       .  S
N1566     Co1580   2.030       .  S
N1567      N1579   1.320       .  A
N1567      N1583   1.316       .  A
N1567     Co1576   2.065       .  S
C1568      N1572   1.331       .  A
C1568      C1582   1.494       .  S
C1568      C3599   1.495       .  S
C1569      C1588   1.463       .  S
C1569      H1573   1.081       .  S
N1570      C1581   1.328       .  A
N1570     Co1580   2.039       .  S
C1574      N1590   1.349       .  A
C1574      C1586   1.458       .  S
C1574      C2836   1.474       .  S
Co1576    Cl1587   2.453       .  S
N1577      C1588   1.345       .  A
C1578      C2856   1.488       .  S
Co1580    Cl1587   2.418       .  S
C1588      C2866   1.463       .  S
C1591      N1609   1.373       .  A
C1591      C1628   1.434       .  S
C1591      C3269   1.494       .  S
N1592      N1609   1.341       .  A
N1592      N1614   1.321       .  A
N1592     Co1629   2.178       .  S
C1593      N1618   1.332       .  A
C1593      C1631   1.462       .  S
C1593      H1638   1.081       .  S
H1594      C1635   1.081       .  S
C1595      N1619   1.339       .  A
C1595      C1599   1.457       .  S
C1595      H1624   1.081       .  S
Co1596     N1614   2.034       .  S
Co1596     N1604   2.069       .  S
Co1596     N1636   2.048       .  S
Co1596     N1612   2.055       .  S
Co1596    Cl1640   2.438       .  S
N1597      C1635   1.338       .  A
N1597      N1604   1.315       .  A
N1597     Co1598   2.068       .  S
Co1598     N1601   2.067       .  S
Co1598     N1618   2.062       .  S
Co1598     N1605   2.084       .  S
Co1598    Cl1640   2.457       .  S
C1599      N1637   1.347       .  A
C1599      C2929   1.459       .  S
N1600      N1607   1.323       .  A
N1600      N1630   1.316       .  A
N1600     Co1633   2.048       .  S
N1601      N1619   1.315       .  A
N1601      N1637   1.320       .  A
N1602      C1631   1.344       .  A
N1602      N1612   1.320       .  A
H1603      C1628   1.082       .  S
N1604      N1625   1.322       .  A
N1605      N1623   1.315       .  A
N1605      N1610   1.324       .  A
C1606      N1610   1.352       .  A
C1606      C1634   1.459       .  S
C1606      C2816   1.479       .  S
N1607      C1622   1.357       .  A
N1607     Co1629   2.145       .  S
C1608      N1636   1.332       .  A
C1608      C1611   1.441       .  S
C1608      H1642   1.081       .  S
C1611      N1632   1.368       .  A
C1611      C2806   1.491       .  S
N1612      N1618   1.315       .  A
N1613      C1639   1.362       .  A
N1613      N1615   1.325       .  A
N1613     Co1629   2.171       .  S
N1614      C1628   1.328       .  A
N1615      N1643   1.316       .  A
N1615     Co1633   2.036       .  S
H1616      C1639   1.081       .  S
H1617      C1634   1.081       .  S
N1619     Co1633   2.067       .  S
N1620      N1632   1.337       .  A
N1620      N1636   1.321       .  A
N1620     Co1629   2.153       .  S
C1621      N1625   1.346       .  A
C1621      C1635   1.458       .  S
C1621      C2786   1.471       .  S
C1622      C1641   1.481       .  S
C1622      H1626   1.081       .  S
N1623      C1634   1.344       .  A
N1623     Co1633   2.078       .  S
C1627      N1643   1.331       .  A
C1627      C1639   1.488       .  S
C1627      C2859   1.485       .  S
Co1629    Cl1640   2.458       .  S
N1630      C1641   1.335       .  A
C1631      C2796   1.469       .  S
Co1633    Cl1640   2.441       .  S
C1641      C3029   1.477       .  S
C1644      N1662   1.350       .  A
C1644      C1681   1.448       .  S
C1644      C2776   1.453       .  S
N1645      N1662   1.321       .  A
N1645      N1667   1.316       .  A
N1645     Co1682   2.071       .  S
C1646      N1671   1.358       .  A
C1646      C1684   1.492       .  S
C1646      H1691   1.081       .  S
H1647      C1688   1.081       .  S
C1648      N1672   1.327       .  A
C1648      C1652   1.439       .  S
C1648      H1677   1.081       .  S
Co1649     N1667   2.055       .  S
Co1649     N1657   2.050       .  S
Co1649     N1689   2.080       .  S
Co1649     N1665   2.040       .  S
Co1649    Cl1693   2.434       .  S
N1650      C1688   1.366       .  A
N1650      N1657   1.321       .  A
N1650     Co1651   2.172       .  S
Co1651     N1654   2.171       .  S
Co1651     N1671   2.166       .  S
Co1651     N1658   2.163       .  S
Co1651    Cl1693   2.475       .  S
C1652      N1690   1.373       .  A
C1652      C4209   1.500       .  S
N1653      N1660   1.315       .  A
N1653      N1683   1.321       .  A
N1653     Co1686   2.062       .  S
N1654      N1672   1.321       .  A
N1654      N1690   1.340       .  A
N1655      C1684   1.337       .  A
N1655      N1665   1.318       .  A
H1656      C1681   1.081       .  S
N1657      N1678   1.317       .  A
N1658      N1676   1.320       .  A
N1658      N1663   1.340       .  A
C1659      N1663   1.370       .  A
C1659      C1687   1.431       .  S
C1659      C2756   1.483       .  S
N1660      C1675   1.339       .  A
N1660     Co1682   2.070       .  S
C1661      N1689   1.343       .  A
C1661      C1664   1.462       .  S
C1661      H1695   1.081       .  S
C1664      N1685   1.345       .  A
C1664      C3356   1.470       .  S
N1665      N1671   1.322       .  A
N1666      C1692   1.340       .  A
N1666      N1668   1.314       .  A
N1666     Co1682   2.073       .  S
N1667      C1681   1.333       .  A
N1668      N1696   1.318       .  A
N1668     Co1686   2.061       .  S
H1669      C1692   1.081       .  S
H1670      C1687   1.081       .  S
N1672     Co1686   2.039       .  S
N1673      N1685   1.319       .  A
N1673      N1689   1.316       .  A
N1673     Co1682   2.063       .  S
C1674      N1678   1.337       .  A
C1674      C1688   1.497       .  S
C1674      C4426   1.509       .  S
C1675      C1694   1.461       .  S
C1675      H1679   1.082       .  S
N1676      C1687   1.326       .  A
N1676     Co1686   2.029       .  S
C1680      N1696   1.346       .  A
C1680      C1692   1.464       .  S
C1680      C2999   1.463       .  S
Co1682    Cl1693   2.459       .  S
N1683      C1694   1.344       .  A
C1684      C2766   1.499       .  S
Co1686    Cl1693   2.422       .  S
C1694      C3066   1.469       .  S
C1697      N1715   1.376       .  A
C1697      C1734   1.431       .  S
C1697      C4289   1.496       .  S
N1698      N1715   1.342       .  A
N1698      N1720   1.321       .  A
N1698     Co1735   2.184       .  S
C1699      N1724   1.340       .  A
C1699      C1737   1.458       .  S
C1699      H1744   1.081       .  S
H1700      C1741   1.081       .  S
C1701      N1725   1.338       .  A
C1701      C1705   1.457       .  S
C1701      H1730   1.081       .  S
Co1702     N1720   2.033       .  S
Co1702     N1710   2.057       .  S
Co1702     N1742   2.032       .  S
Co1702     N1718   2.066       .  S
Co1702    Cl1746   2.425       .  S
N1703      C1741   1.340       .  A
N1703      N1710   1.314       .  A
N1703     Co1704   2.081       .  S
Co1704     N1707   2.066       .  S
Co1704     N1724   2.069       .  S
Co1704     N1711   2.071       .  S
Co1704    Cl1746   2.463       .  S
C1705      N1743   1.350       .  A
C1705      C3246   1.462       .  S
N1706      N1713   1.322       .  A
N1706      N1736   1.313       .  A
N1706     Co1739   2.030       .  S
N1707      N1725   1.316       .  A
N1707      N1743   1.320       .  A
N1708      C1737   1.346       .  A
N1708      N1718   1.320       .  A
H1709      C1734   1.081       .  S
N1710      N1731   1.320       .  A
N1711      N1729   1.316       .  A
N1711      N1716   1.321       .  A
C1712      N1716   1.347       .  A
C1712      C1740   1.450       .  S
C1712      C3196   1.454       .  S
N1713      C1728   1.362       .  A
N1713     Co1735   2.165       .  S
C1714      N1742   1.325       .  A
C1714      C1717   1.446       .  S
C1714      H1748   1.079       .  S
C1717      N1738   1.371       .  A
C1717      C2886   1.502       .  S
N1718      N1724   1.315       .  A
N1719      C1745   1.359       .  A
N1719      N1721   1.323       .  A
N1719     Co1735   2.165       .  S
N1720      C1734   1.328       .  A
N1721      N1749   1.320       .  A
N1721     Co1739   2.050       .  S
H1722      C1745   1.081       .  S
H1723      C1740   1.081       .  S
N1725     Co1739   2.072       .  S
N1726      N1738   1.337       .  A
N1726      N1742   1.319       .  A
N1726     Co1735   2.159       .  S
C1727      N1731   1.343       .  A
C1727      C1741   1.469       .  S
C1727      C2749   1.475       .  S
C1728      C1747   1.495       .  S
C1728      H1732   1.081       .  S
N1729      C1740   1.337       .  A
N1729     Co1739   2.059       .  S
C1733      N1749   1.340       .  A
C1733      C1745   1.490       .  S
C1733      C2736   1.502       .  S
Co1735    Cl1746   2.476       .  S
N1736      C1747   1.330       .  A
C1737      C2939   1.464       .  S
Co1739    Cl1746   2.425       .  S
C1747      C4146   1.492       .  S
C1750      N1768   1.374       .  A
C1750      C1787   1.438       .  S
C1750      C4239   1.502       .  S
N1751      N1768   1.340       .  A
N1751      N1773   1.317       .  A
N1751     Co1788   2.161       .  S
C1752      N1777   1.341       .  A
C1752      C1790   1.466       .  S
C1752      H1797   1.081       .  S
H1753      C1794   1.081       .  S
C1754      N1778   1.338       .  A
C1754      C1758   1.454       .  S
C1754      H1783   1.081       .  S
Co1755     N1773   2.023       .  S
Co1755     N1763   2.064       .  S
Co1755     N1795   2.037       .  S
Co1755     N1771   2.043       .  S
Co1755    Cl1799   2.407       .  S
N1756      C1794   1.334       .  A
N1756      N1763   1.314       .  A
N1756     Co1757   2.058       .  S
Co1757     N1760   2.077       .  S
Co1757     N1777   2.080       .  S
Co1757     N1764   2.066       .  S
Co1757    Cl1799   2.463       .  S
C1758      N1796   1.351       .  A
C1758      C2716   1.466       .  S
N1759      N1766   1.322       .  A
N1759      N1789   1.312       .  A
N1759     Co1792   2.032       .  S
N1760      N1778   1.315       .  A
N1760      N1796   1.322       .  A
N1761      C1790   1.338       .  A
N1761      N1771   1.316       .  A
H1762      C1787   1.079       .  S
N1763      N1784   1.321       .  A
N1764      N1782   1.315       .  A
N1764      N1769   1.319       .  A
C1765      N1769   1.348       .  A
C1765      C1793   1.459       .  S
C1765      C3306   1.469       .  S
N1766      C1781   1.362       .  A
N1766     Co1788   2.161       .  S
C1767      N1795   1.327       .  A
C1767      C1770   1.437       .  S
C1767      H1801   1.081       .  S
C1770      N1791   1.374       .  A
C1770      C2879   1.501       .  S
N1771      N1777   1.315       .  A
N1772      C1798   1.361       .  A
N1772      N1774   1.323       .  A
N1772     Co1788   2.162       .  S
N1773      C1787   1.320       .  A
N1774      N1802   1.312       .  A
N1774     Co1792   2.029       .  S
H1775      C1798   1.081       .  S
H1776      C1793   1.081       .  S
N1778     Co1792   2.063       .  S
N1779      N1791   1.342       .  A
N1779      N1795   1.320       .  A
N1779     Co1788   2.173       .  S
C1780      N1784   1.345       .  A
C1780      C1794   1.460       .  S
C1780      C2726   1.469       .  S
C1781      C1800   1.492       .  S
C1781      H1785   1.081       .  S
N1782      C1793   1.341       .  A
N1782     Co1792   2.071       .  S
C1786      N1802   1.331       .  A
C1786      C1798   1.491       .  S
C1786      C2709   1.488       .  S
Co1788    Cl1799   2.489       .  S
N1789      C1800   1.331       .  A
C1790      C3039   1.466       .  S
Co1792    Cl1799   2.422       .  S
C1800      C4186   1.490       .  S
C1803      N1821   1.348       .  A
C1803      C1840   1.456       .  S
C1803      C2686   1.467       .  S
N1804      N1821   1.320       .  A
N1804      N1826   1.315       .  A
N1804     Co1841   2.068       .  S
C1805      N1830   1.360       .  A
C1805      C1843   1.489       .  S
C1805      H1850   1.081       .  S
H1806      C1847   1.081       .  S
C1807      N1831   1.326       .  A
C1807      C1811   1.447       .  S
C1807      H1836   1.080       .  S
Co1808     N1826   2.070       .  S
Co1808     N1816   2.027       .  S
Co1808     N1848   2.061       .  S
Co1808     N1824   2.031       .  S
Co1808    Cl1852   2.421       .  S
N1809      C1847   1.364       .  A
N1809      N1816   1.323       .  A
N1809     Co1810   2.172       .  S
Co1810     N1813   2.166       .  S
Co1810     N1830   2.156       .  S
Co1810     N1817   2.174       .  S
Co1810    Cl1852   2.476       .  S
C1811      N1849   1.373       .  A
C1811      C2769   1.509       .  S
N1812      N1819   1.313       .  A
N1812      N1842   1.320       .  A
N1812     Co1845   2.056       .  S
N1813      N1831   1.321       .  A
N1813      N1849   1.340       .  A
N1814      C1843   1.330       .  A
N1814      N1824   1.312       .  A
H1815      C1840   1.081       .  S
N1816      N1837   1.312       .  A
N1817      N1835   1.319       .  A
N1817      N1822   1.342       .  A
C1818      N1822   1.376       .  A
C1818      C1846   1.433       .  S
C1818      C3276   1.499       .  S
N1819      C1834   1.331       .  A
N1819     Co1841   2.049       .  S
C1820      N1848   1.339       .  A
C1820      C1823   1.457       .  S
C1820      H1854   1.080       .  S
C1823      N1844   1.346       .  A
C1823      C2919   1.460       .  S
N1824      N1830   1.323       .  A
N1825      C1851   1.339       .  A
N1825      N1827   1.314       .  A
N1825     Co1841   2.066       .  S
N1826      C1840   1.341       .  A
N1827      N1855   1.320       .  A
N1827     Co1845   2.070       .  S
H1828      C1851   1.081       .  S
H1829      C1846   1.081       .  S
N1831     Co1845   2.045       .  S
N1832      N1844   1.317       .  A
N1832      N1848   1.313       .  A
N1832     Co1841   2.051       .  S
C1833      N1837   1.330       .  A
C1833      C1847   1.494       .  S
C1833      C3339   1.492       .  S
C1834      C1853   1.459       .  S
C1834      H1838   1.081       .  S
N1835      C1846   1.321       .  A
N1835     Co1845   2.020       .  S
C1839      N1855   1.347       .  A
C1839      C1851   1.464       .  S
C1839      C2789   1.470       .  S
Co1841    Cl1852   2.468       .  S
N1842      C1853   1.346       .  A
C1843      C2706   1.482       .  S
Co1845    Cl1852   2.415       .  S
C1853      C2696   1.470       .  S
C1856      N1874   1.372       .  A
C1856      C1893   1.443       .  S
C1856      C4399   1.502       .  S
N1857      N1874   1.339       .  A
N1857      N1879   1.320       .  A
N1857     Co1894   2.163       .  S
C1858      N1883   1.335       .  A
C1858      C1896   1.458       .  S
C1858      H1903   1.081       .  S
H1859      C1900   1.082       .  S
C1860      N1884   1.341       .  A
C1860      C1864   1.459       .  S
C1860      H1889   1.081       .  S
Co1861     N1879   2.040       .  S
Co1861     N1869   2.044       .  S
Co1861     N1901   2.019       .  S
Co1861     N1877   2.066       .  S
Co1861    Cl1905   2.412       .  S
N1862      C1900   1.338       .  A
N1862      N1869   1.315       .  A
N1862     Co1863   2.066       .  S
Co1863     N1866   2.064       .  S
Co1863     N1883   2.060       .  S
Co1863     N1870   2.072       .  S
Co1863    Cl1905   2.461       .  S
C1864      N1902   1.346       .  A
C1864      C2676   1.468       .  S
N1865      N1872   1.322       .  A
N1865      N1895   1.315       .  A
N1865     Co1898   2.034       .  S
N1866      N1884   1.316       .  A
N1866      N1902   1.321       .  A
N1867      C1896   1.345       .  A
N1867      N1877   1.322       .  A
H1868      C1893   1.081       .  S
N1869      N1890   1.316       .  A
N1870      N1888   1.315       .  A
N1870      N1875   1.321       .  A
C1871      N1875   1.350       .  A
C1871      C1899   1.453       .  S
C1871      C3109   1.464       .  S
N1872      C1887   1.358       .  A
N1872     Co1894   2.168       .  S
C1873      N1901   1.319       .  A
C1873      C1876   1.435       .  S
C1873      H1907   1.080       .  S
C1876      N1897   1.377       .  A
C1876      C3549   1.503       .  S
N1877      N1883   1.315       .  A
N1878      C1904   1.363       .  A
N1878      N1880   1.322       .  A
N1878     Co1894   2.156       .  S
N1879      C1893   1.327       .  A
N1880      N1908   1.312       .  A
N1880     Co1898   2.039       .  S
H1881      C1904   1.081       .  S
H1882      C1899   1.080       .  S
N1884     Co1898   2.074       .  S
N1885      N1897   1.343       .  A
N1885      N1901   1.318       .  A
N1885     Co1894   2.173       .  S
C1886      N1890   1.340       .  A
C1886      C1900   1.459       .  S
C1886      C2666   1.458       .  S
C1887      C1906   1.497       .  S
C1887      H1891   1.079       .  S
N1888      C1899   1.338       .  A
N1888     Co1898   2.063       .  S
C1892      N1908   1.332       .  A
C1892      C1904   1.491       .  S
C1892      C3399   1.490       .  S
Co1894    Cl1905   2.485       .  S
N1895      C1906   1.336       .  A
C1896      C2869   1.466       .  S
Co1898    Cl1905   2.425       .  S
C1906      C4119   1.504       .  S
C1909      N1927   1.374       .  A
C1909      C1946   1.435       .  S
C1909      C3329   1.496       .  S
N1910      N1927   1.341       .  A
N1910      N1932   1.320       .  A
N1910     Co1947   2.170       .  S
C1911      N1936   1.339       .  A
C1911      C1949   1.459       .  S
C1911      H1956   1.082       .  S
H1912      C1953   1.081       .  S
C1913      N1937   1.334       .  A
C1913      C1917   1.453       .  S
C1913      H1942   1.080       .  S
Co1914     N1932   2.032       .  S
Co1914     N1922   2.069       .  S
Co1914     N1954   2.048       .  S
Co1914     N1930   2.048       .  S
Co1914    Cl1958   2.412       .  S
N1915      C1953   1.335       .  A
N1915      N1922   1.314       .  A
N1915     Co1916   2.065       .  S
Co1916     N1919   2.069       .  S
Co1916     N1936   2.063       .  S
Co1916     N1923   2.071       .  S
Co1916    Cl1958   2.459       .  S
C1917      N1955   1.351       .  A
C1917      C2656   1.458       .  S
N1918      N1925   1.321       .  A
N1918      N1948   1.309       .  A
N1918     Co1951   2.021       .  S
N1919      N1937   1.313       .  A
N1919      N1955   1.320       .  A
N1920      C1949   1.339       .  A
N1920      N1930   1.316       .  A
H1921      C1946   1.081       .  S
N1922      N1943   1.322       .  A
N1923      N1941   1.315       .  A
N1923      N1928   1.323       .  A
C1924      N1928   1.349       .  A
C1924      C1952   1.452       .  S
C1924      C2646   1.459       .  S
N1925      C1940   1.364       .  A
N1925     Co1947   2.159       .  S
C1926      N1954   1.331       .  A
C1926      C1929   1.439       .  S
C1926      H1960   1.081       .  S
C1929      N1950   1.364       .  A
C1929      C2959   1.479       .  S
N1930      N1936   1.315       .  A
N1931      C1957   1.360       .  A
N1931      N1933   1.321       .  A
N1931     Co1947   2.158       .  S
N1932      C1946   1.326       .  A
N1933      N1961   1.312       .  A
N1933     Co1951   2.024       .  S
H1934      C1957   1.081       .  S
H1935      C1952   1.081       .  S
N1937     Co1951   2.050       .  S
N1938      N1950   1.335       .  A
N1938      N1954   1.321       .  A
N1938     Co1947   2.142       .  S
C1939      N1943   1.348       .  A
C1939      C1953   1.464       .  S
C1939      C2689   1.476       .  S
C1940      C1959   1.495       .  S
C1940      H1944   1.081       .  S
N1941      C1952   1.337       .  A
N1941     Co1951   2.060       .  S
C1945      N1961   1.333       .  A
C1945      C1957   1.491       .  S
C1945      C3179   1.490       .  S
Co1947    Cl1958   2.484       .  S
N1948      C1959   1.327       .  A
C1949      C2909   1.455       .  S
Co1951    Cl1958   2.413       .  S
C1959      C3009   1.488       .  S
C1962      N1980   1.348       .  A
C1962      C1999   1.453       .  S
C1962      C2636   1.451       .  S
N1963      N1980   1.320       .  A
N1963      N1985   1.316       .  A
N1963     Co2000   2.069       .  S
C1964      N1989   1.363       .  A
C1964      C2002   1.495       .  S
C1964      H2009   1.081       .  S
H1965      C2006   1.081       .  S
C1966      N1990   1.323       .  A
C1966      C1970   1.439       .  S
C1966      H1995   1.080       .  S
Co1967     N1985   2.066       .  S
Co1967     N1975   2.024       .  S
Co1967     N2007   2.055       .  S
Co1967     N1983   2.031       .  S
Co1967    Cl2011   2.423       .  S
N1968      C2006   1.365       .  A
N1968      N1975   1.321       .  A
N1968     Co1969   2.176       .  S
Co1969     N1972   2.166       .  S
Co1969     N1989   2.172       .  S
Co1969     N1976   2.175       .  S
Co1969    Cl2011   2.484       .  S
C1970      N2008   1.374       .  A
C1970      C4109   1.503       .  S
N1971      N1978   1.313       .  A
N1971      N2001   1.320       .  A
N1971     Co2004   2.065       .  S
N1972      N1990   1.319       .  A
N1972      N2008   1.340       .  A
N1973      C2002   1.334       .  A
N1973      N1983   1.313       .  A
H1974      C1999   1.081       .  S
N1975      N1996   1.313       .  A
N1976      N1994   1.321       .  A
N1976      N1981   1.341       .  A
C1977      N1981   1.374       .  A
C1977      C2005   1.440       .  S
C1977      C3749   1.506       .  S
N1978      C1993   1.340       .  A
N1978     Co2000   2.070       .  S
C1979      N2007   1.336       .  A
C1979      C1982   1.452       .  S
C1979      H2013   1.081       .  S
C1982      N2003   1.348       .  A
C1982      C2626   1.459       .  S
N1983      N1989   1.322       .  A
N1984      C2010   1.340       .  A
N1984      N1986   1.315       .  A
N1984     Co2000   2.073       .  S
N1985      C1999   1.338       .  A
N1986      N2014   1.319       .  A
N1986     Co2004   2.060       .  S
H1987      C2010   1.081       .  S
H1988      C2005   1.081       .  S
N1990     Co2004   2.028       .  S
N1991      N2003   1.320       .  A
N1991      N2007   1.315       .  A
N1991     Co2000   2.068       .  S
C1992      N1996   1.329       .  A
C1992      C2006   1.497       .  S
C1992      C4276   1.494       .  S
C1993      C2012   1.466       .  S
C1993      H1997   1.081       .  S
N1994      C2005   1.328       .  A
N1994     Co2004   2.041       .  S
C1998      N2014   1.343       .  A
C1998      C2010   1.467       .  S
C1998      C3129   1.476       .  S
Co2000    Cl2011   2.465       .  S
N2001      C2012   1.348       .  A
C2002      C3919   1.498       .  S
Co2004    Cl2011   2.410       .  S
C2012      C2679   1.475       .  S
C2015      N2033   1.371       .  A
C2015      C2052   1.437       .  S
C2015      C2989   1.492       .  S
N2016      N2033   1.339       .  A
N2016      N2038   1.322       .  A
N2016     Co2053   2.166       .  S
C2017      N2042   1.335       .  A
C2017      C2055   1.458       .  S
C2017      H2062   1.079       .  S
H2018      C2059   1.079       .  S
C2019      N2043   1.335       .  A
C2019      C2023   1.459       .  S
C2019      H2048   1.080       .  S
Co2020     N2038   2.036       .  S
Co2020     N2028   2.048       .  S
Co2020     N2060   2.016       .  S
Co2020     N2036   2.066       .  S
Co2020    Cl2064   2.425       .  S
N2021      C2059   1.335       .  A
N2021      N2028   1.314       .  A
N2021     Co2022   2.062       .  S
Co2022     N2025   2.057       .  S
Co2022     N2042   2.061       .  S
Co2022     N2029   2.063       .  S
Co2022    Cl2064   2.464       .  S
C2023      N2061   1.347       .  A
C2023      C2699   1.468       .  S
N2024      N2031   1.323       .  A
N2024      N2054   1.316       .  A
N2024     Co2057   2.039       .  S
N2025      N2043   1.313       .  A
N2025      N2061   1.318       .  A
N2026      C2055   1.346       .  A
N2026      N2036   1.322       .  A
H2027      C2052   1.081       .  S
N2028      N2049   1.319       .  A
N2029      N2047   1.314       .  A
N2029      N2034   1.317       .  A
C2030      N2034   1.347       .  A
C2030      C2058   1.460       .  S
C2030      C2799   1.468       .  S
N2031      C2046   1.363       .  A
N2031     Co2053   2.172       .  S
C2032      N2060   1.321       .  A
C2032      C2035   1.427       .  S
C2032      H2066   1.082       .  S
C2035      N2056   1.375       .  A
C2035      C2616   1.488       .  S
N2036      N2042   1.314       .  A
N2037      C2063   1.358       .  A
N2037      N2039   1.322       .  A
N2037     Co2053   2.157       .  S
N2038      C2052   1.327       .  A
N2039      N2067   1.316       .  A
N2039     Co2057   2.037       .  S
H2040      C2063   1.080       .  S
H2041      C2058   1.081       .  S
N2043     Co2057   2.057       .  S
N2044      N2056   1.343       .  A
N2044      N2060   1.321       .  A
N2044     Co2053   2.183       .  S
C2045      N2049   1.341       .  A
C2045      C2059   1.455       .  S
C2045      C2659   1.456       .  S
C2046      C2065   1.492       .  S
C2046      H2050   1.081       .  S
N2047      C2058   1.338       .  A
N2047     Co2057   2.060       .  S
C2051      N2067   1.335       .  A
C2051      C2063   1.493       .  S
C2051      C2596   1.496       .  S
Co2053    Cl2064   2.472       .  S
N2054      C2065   1.333       .  A
C2055      C2609   1.470       .  S
Co2057    Cl2064   2.423       .  S
C2065      C2759   1.493       .  S
C2068      N2086   1.346       .  A
C2068      C2105   1.461       .  S
C2068      C2669   1.461       .  S
N2069      N2086   1.318       .  A
N2069      N2091   1.312       .  A
N2069     Co2106   2.049       .  S
C2070      N2095   1.362       .  A
C2070      C2108   1.496       .  S
C2070      H2115   1.081       .  S
H2071      C2112   1.081       .  S
C2072      N2096   1.317       .  A
C2072      C2076   1.429       .  S
C2072      H2101   1.081       .  S
Co2073     N2091   2.062       .  S
Co2073     N2081   2.033       .  S
Co2073     N2113   2.059       .  S
Co2073     N2089   2.047       .  S
Co2073    Cl2117   2.414       .  S
N2074      C2112   1.360       .  A
N2074      N2081   1.321       .  A
N2074     Co2075   2.160       .  S
Co2075     N2078   2.176       .  S
Co2075     N2095   2.170       .  S
Co2075     N2082   2.177       .  S
Co2075    Cl2117   2.472       .  S
C2076      N2114   1.375       .  A
C2076      C4259   1.492       .  S
N2077      N2084   1.313       .  A
N2077      N2107   1.322       .  A
N2077     Co2110   2.061       .  S
N2078      N2096   1.320       .  A
N2078      N2114   1.343       .  A
N2079      C2108   1.337       .  A
N2079      N2089   1.317       .  A
H2080      C2105   1.081       .  S
N2081      N2102   1.315       .  A
N2082      N2100   1.323       .  A
N2082      N2087   1.340       .  A
C2083      N2087   1.372       .  A
C2083      C2111   1.427       .  S
C2083      C2619   1.482       .  S
N2084      C2099   1.336       .  A
N2084     Co2106   2.064       .  S
C2085      N2113   1.336       .  A
C2085      C2088   1.458       .  S
C2085      H2119   1.081       .  S
C2088      N2109   1.350       .  A
C2088      C2839   1.471       .  S
N2089      N2095   1.323       .  A
N2090      C2116   1.335       .  A
N2090      N2092   1.315       .  A
N2090     Co2106   2.061       .  S
N2091      C2105   1.335       .  A
N2092      N2120   1.320       .  A
N2092     Co2110   2.052       .  S
H2093      C2116   1.081       .  S
H2094      C2111   1.081       .  S
N2096     Co2110   2.015       .  S
N2097      N2109   1.320       .  A
N2097      N2113   1.314       .  A
N2097     Co2106   2.068       .  S
C2098      N2102   1.334       .  A
C2098      C2112   1.494       .  S
C2098      C4389   1.497       .  S
C2099      C2118   1.456       .  S
C2099      H2103   1.081       .  S
N2100      C2111   1.325       .  A
N2100     Co2110   2.023       .  S
C2104      N2120   1.342       .  A
C2104      C2116   1.455       .  S
C2104      C2589   1.455       .  S
Co2106    Cl2117   2.470       .  S
N2107      C2118   1.346       .  A
C2108      C2579   1.505       .  S
Co2110    Cl2117   2.421       .  S
C2118      C2639   1.451       .  S
C2121      N2139   1.373       .  A
C2121      C2158   1.438       .  S
C2121      C4049   1.495       .  S
N2122      N2139   1.339       .  A
N2122      N2144   1.321       .  A
N2122     Co2159   2.172       .  S
C2123      N2148   1.339       .  A
C2123      C2161   1.466       .  S
C2123      H2168   1.081       .  S
H2124      C2165   1.082       .  S
C2125      N2149   1.338       .  A
C2125      C2129   1.454       .  S
C2125      H2154   1.081       .  S
Co2126     N2144   2.028       .  S
Co2126     N2134   2.090       .  S
Co2126     N2166   2.058       .  S
Co2126     N2142   2.050       .  S
Co2126    Cl2170   2.414       .  S
N2127      C2165   1.332       .  A
N2127      N2134   1.314       .  A
N2127     Co2128   2.052       .  S
Co2128     N2131   2.062       .  S
Co2128     N2148   2.066       .  S
Co2128     N2135   2.059       .  S
Co2128    Cl2170   2.451       .  S
C2129      N2167   1.346       .  A
C2129      C2629   1.457       .  S
N2130      N2137   1.321       .  A
N2130      N2160   1.312       .  A
N2130     Co2163   2.026       .  S
N2131      N2149   1.314       .  A
N2131      N2167   1.320       .  A
N2132      C2161   1.340       .  A
N2132      N2142   1.316       .  A
H2133      C2158   1.080       .  S
N2134      N2155   1.327       .  A
N2135      N2153   1.313       .  A
N2135      N2140   1.319       .  A
C2136      N2140   1.348       .  A
C2136      C2164   1.455       .  S
C2136      C2586   1.457       .  S
N2137      C2152   1.363       .  A
N2137     Co2159   2.178       .  S
C2138      N2166   1.328       .  A
C2138      C2141   1.444       .  S
C2138      H2172   1.080       .  S
C2141      N2162   1.372       .  A
C2141      C2809   1.506       .  S
N2142      N2148   1.313       .  A
N2143      C2169   1.368       .  A
N2143      N2145   1.319       .  A
N2143     Co2159   2.174       .  S
N2144      C2158   1.325       .  A
N2145      N2173   1.308       .  A
N2145     Co2163   2.019       .  S
H2146      C2169   1.080       .  S
H2147      C2164   1.079       .  S
N2149     Co2163   2.058       .  S
N2150      N2162   1.340       .  A
N2150      N2166   1.321       .  A
N2150     Co2159   2.160       .  S
C2151      N2155   1.355       .  A
C2151      C2165   1.454       .  S
C2151      C3119   1.472       .  S
C2152      C2171   1.503       .  S
C2152      H2156   1.079       .  S
N2153      C2164   1.337       .  A
N2153     Co2163   2.061       .  S
C2157      N2173   1.330       .  A
C2157      C2169   1.504       .  S
C2157      C2599   1.508       .  S
Co2159    Cl2170   2.487       .  S
N2160      C2171   1.333       .  A
C2161      C2849   1.469       .  S
Co2163    Cl2170   2.423       .  S
C2171      C3899   1.509       .  S
C2174      N2192   1.343       .  A
C2174      C2211   1.459       .  S
C2174      C2649   1.459       .  S
N2175      N2192   1.319       .  A
N2175      N2197   1.316       .  A
N2175     Co2212   2.060       .  S
C2176      N2201   1.365       .  A
C2176      C2214   1.495       .  S
C2176      H2221   1.081       .  S
H2177      C2218   1.080       .  S
C2178      N2202   1.332       .  A
C2178      C2182   1.440       .  S
C2178      H2207   1.082       .  S
Co2179     N2197   2.071       .  S
Co2179     N2187   2.048       .  S
Co2179     N2219   2.070       .  S
Co2179     N2195   2.033       .  S
Co2179    Cl2223   2.433       .  S
N2180      C2218   1.358       .  A
N2180      N2187   1.322       .  A
N2180     Co2181   2.156       .  S
Co2181     N2184   2.171       .  S
Co2181     N2201   2.172       .  S
Co2181     N2188   2.163       .  S
Co2181    Cl2223   2.479       .  S
C2182      N2220   1.370       .  A
C2182      C2739   1.496       .  S
N2183      N2190   1.314       .  A
N2183      N2213   1.321       .  A
N2183     Co2216   2.063       .  S
N2184      N2202   1.323       .  A
N2184      N2220   1.340       .  A
N2185      C2214   1.331       .  A
N2185      N2195   1.314       .  A
H2186      C2211   1.082       .  S
N2187      N2208   1.316       .  A
N2188      N2206   1.319       .  A
N2188      N2193   1.340       .  A
C2189      N2193   1.374       .  A
C2189      C2217   1.440       .  S
C2189      C2829   1.502       .  S
N2190      C2205   1.336       .  A
N2190     Co2212   2.067       .  S
C2191      N2219   1.340       .  A
C2191      C2194   1.460       .  S
C2191      H2225   1.081       .  S
C2194      N2215   1.348       .  A
C2194      C2606   1.466       .  S
N2195      N2201   1.323       .  A
N2196      C2222   1.338       .  A
N2196      N2198   1.314       .  A
N2196     Co2212   2.066       .  S
N2197      C2211   1.341       .  A
N2198      N2226   1.325       .  A
N2198     Co2216   2.085       .  S
H2199      C2222   1.081       .  S
H2200      C2217   1.079       .  S
N2202     Co2216   2.050       .  S
N2203      N2215   1.319       .  A
N2203      N2219   1.315       .  A
N2203     Co2212   2.065       .  S
C2204      N2208   1.340       .  A
C2204      C2218   1.490       .  S
C2204      C3189   1.500       .  S
C2205      C2224   1.462       .  S
C2205      H2209   1.080       .  S
N2206      C2217   1.320       .  A
N2206     Co2216   2.026       .  S
C2210      N2226   1.351       .  A
C2210      C2222   1.464       .  S
C2210      C2819   1.486       .  S
Co2212    Cl2223   2.453       .  S
N2213      C2224   1.348       .  A
C2214      C2576   1.494       .  S
Co2216    Cl2223   2.428       .  S
C2224      C2899   1.469       .  S
C2227      N2245   1.352   1_556  A
C2227      C2264   1.449       .  S
C2227      C2729   1.461   1_556  S
N2228      N2245   1.322   1_556  A
N2228      N2250   1.316       .  A
N2228     Co2265   2.082       .  S
C2229      N2254   1.362       .  A
C2229      C2267   1.493       .  S
C2229      H2274   1.081       .  S
H2230      C2271   1.081       .  S
C2231      N2255   1.328       .  A
C2231      C2235   1.438       .  S
C2231      H2260   1.080       .  S
Co2232     N2250   2.053       .  S
Co2232     N2240   2.033       .  S
Co2232     N2272   2.062       .  S
Co2232     N2248   2.035       .  S
Co2232    Cl2276   2.424       .  S
N2233      C2271   1.363       .  A
N2233      N2240   1.321       .  A
N2233     Co2234   2.170       .  S
Co2234     N2237   2.165       .  S
Co2234     N2254   2.169       .  S
Co2234     N2241   2.173       .  S
Co2234    Cl2276   2.479       .  S
C2235      N2273   1.371       .  A
C2235      C4129   1.495       .  S
N2236      N2243   1.314       .  A
N2236      N2266   1.318       .  A
N2236     Co2269   2.049       .  S
N2237      N2255   1.323       .  A
N2237      N2273   1.340       .  A
N2238      C2267   1.331       .  A
N2238      N2248   1.314       .  A
H2239      C2264   1.081       .  S
N2240      N2261   1.315       .  A
N2241      N2259   1.318       .  A
N2241      N2246   1.342       .  A
C2242      N2246   1.376       .  A
C2242      C2270   1.438       .  S
C2242      C4009   1.508       .  S
N2243      C2258   1.341   1_556  A
N2243     Co2265   2.070       .  S
C2244      N2272   1.339       .  A
C2244      C2247   1.454       .  S
C2244      H2278   1.081       .  S
C2247      N2268   1.346       .  A
C2247      C3056   1.454   1_556  S
N2248      N2254   1.324       .  A
N2249      C2275   1.340   1_556  A
N2249      N2251   1.315       .  A
N2249     Co2265   2.078       .  S
N2250      C2264   1.335       .  A
N2251      N2279   1.320       .  A
N2251     Co2269   2.065       .  S
H2252      C2275   1.081       .  S
H2253      C2270   1.079       .  S
N2255     Co2269   2.050       .  S
N2256      N2268   1.319       .  A
N2256      N2272   1.314       .  A
N2256     Co2265   2.062       .  S
C2257      N2261   1.334       .  A
C2257      C2271   1.495       .  S
C2257      C4219   1.500       .  S
C2258      C2277   1.464       .  S
C2258      H2262   1.081       .  S
N2259      C2270   1.323       .  A
N2259     Co2269   2.021       .  S
C2263      N2279   1.345       .  A
C2263      C2275   1.466   1_556  S
C2263      C3159   1.476   1_556  S
Co2265    Cl2276   2.470       .  S
N2266      C2277   1.340   1_556  A
C2267      C3946   1.490       .  S
Co2269    Cl2276   2.415       .  S
C2277      C2566   1.466       .  S
C2280      N2298   1.371       .  A
C2280      C2317   1.431       .  S
C2280      C4459   1.485       .  S
N2281      N2298   1.340       .  A
N2281      N2303   1.322       .  A
N2281     Co2318   2.169       .  S
C2282      N2307   1.336   1_545  A
C2282      C2320   1.455   1_545  S
C2282      H2327   1.081       .  S
H2283      C2324   1.081   1_545  S
C2284      N2308   1.337       .  A
C2284      C2288   1.455       .  S
C2284      H2313   1.079       .  S
Co2285     N2303   2.032       .  S
Co2285     N2293   2.056       .  S
Co2285     N2325   2.029       .  S
Co2285     N2301   2.070       .  S
Co2285    Cl2329   2.421       .  S
N2286      C2324   1.335       .  A
N2286      N2293   1.315       .  A
N2286     Co2287   2.065       .  S
Co2287     N2290   2.060       .  S
Co2287     N2307   2.060       .  S
Co2287     N2294   2.075       .  S
Co2287    Cl2329   2.471       .  S
C2288      N2326   1.348       .  A
C2288      C3079   1.463       .  S
N2289      N2296   1.320       .  A
N2289      N2319   1.312       .  A
N2289     Co2322   2.038       .  S
N2290      N2308   1.313       .  A
N2290      N2326   1.319       .  A
N2291      C2320   1.346       .  A
N2291      N2301   1.323       .  A
H2292      C2317   1.082       .  S
N2293      N2314   1.320       .  A
N2294      N2312   1.314       .  A
N2294      N2299   1.324   1_565  A
C2295      N2299   1.352   1_565  A
C2295      C2323   1.452       .  S
C2295      C2556   1.469   1_565  S
N2296      C2311   1.363       .  A
N2296     Co2318   2.163       .  S
C2297      N2325   1.322       .  A
C2297      C2300   1.438       .  S
C2297      H2331   1.081       .  S
C2300      N2321   1.374       .  A
C2300      C3519   1.501       .  S
N2301      N2307   1.316       .  A
N2302      C2328   1.363       .  A
N2302      N2304   1.322       .  A
N2302     Co2318   2.175       .  S
N2303      C2317   1.327       .  A
N2304      N2332   1.314       .  A
N2304     Co2322   2.031       .  S
H2305      C2328   1.081       .  S
H2306      C2323   1.077       .  S
N2308     Co2322   2.058       .  S
N2309      N2321   1.341       .  A
N2309      N2325   1.322       .  A
N2309     Co2318   2.176       .  S
C2310      N2314   1.344       .  A
C2310      C2324   1.457       .  S
C2310      C2779   1.461   1_565  S
C2311      C2330   1.499       .  S
C2311      H2315   1.080       .  S
N2312      C2323   1.335       .  A
N2312     Co2322   2.061       .  S
C2316      N2332   1.331       .  A
C2316      C2328   1.497       .  S
C2316      C3409   1.505       .  S
Co2318    Cl2329   2.474       .  S
N2319      C2330   1.334       .  A
C2320      C3376   1.464   1_565  S
Co2322    Cl2329   2.421       .  S
C2330      C4379   1.506       .  S
C2333      N2351   1.370       .  A
C2333      C2370   1.431       .  S
C2333      C4369   1.485       .  S
N2334      N2351   1.340       .  A
N2334      N2356   1.318       .  A
N2334     Co2371   2.151       .  S
C2335      N2360   1.332   1_554  A
C2335      C2373   1.451       .  S
C2335      H2380   1.081       .  S
H2336      C2377   1.081       .  S
C2337      N2361   1.344       .  A
C2337      C2341   1.459       .  S
C2337      H2366   1.081       .  S
Co2338     N2356   2.027       .  S
Co2338     N2346   2.058       .  S
Co2338     N2378   2.046       .  S
Co2338     N2354   2.063       .  S
Co2338    Cl2382   2.418       .  S
N2339      C2377   1.340   1_556  A
N2339      N2346   1.315       .  A
N2339     Co2340   2.069       .  S
Co2340     N2343   2.060       .  S
Co2340     N2360   2.050       .  S
Co2340     N2347   2.069       .  S
Co2340    Cl2382   2.457       .  S
C2341      N2379   1.346       .  A
C2341      C2746   1.467       .  S
N2342      N2349   1.322       .  A
N2342      N2372   1.311       .  A
N2342     Co2375   2.022       .  S
N2343      N2361   1.314       .  A
N2343      N2379   1.319       .  A
N2344      C2373   1.346   1_556  A
N2344      N2354   1.322       .  A
H2345      C2370   1.081       .  S
N2346      N2367   1.316       .  A
N2347      N2365   1.316       .  A
N2347      N2352   1.322   1_556  A
C2348      N2352   1.349   1_556  A
C2348      C2376   1.451       .  S
C2348      C2966   1.458   1_556  S
N2349      C2364   1.358       .  A
N2349     Co2371   2.150       .  S
C2350      N2378   1.332       .  A
C2350      C2353   1.446       .  S
C2350      H2384   1.081       .  S
C2353      N2374   1.367       .  A
C2353      C3769   1.495       .  S
N2354      N2360   1.316       .  A
N2355      C2381   1.362       .  A
N2355      N2357   1.320       .  A
N2355     Co2371   2.163       .  S
N2356      C2370   1.323       .  A
N2357      N2385   1.314       .  A
N2357     Co2375   2.042       .  S
H2358      C2381   1.079       .  S
H2359      C2376   1.080       .  S
N2361     Co2375   2.077       .  S
N2362      N2374   1.334       .  A
N2362      N2378   1.322       .  A
N2362     Co2371   2.156       .  S
C2363      N2367   1.339       .  A
C2363      C2377   1.465   1_556  S
C2363      C3239   1.465   1_556  S
C2364      C2383   1.485       .  S
C2364      H2368   1.081       .  S
N2365      C2376   1.333       .  A
N2365     Co2375   2.053       .  S
C2369      N2385   1.338       .  A
C2369      C2381   1.498       .  S
C2369      C3856   1.511       .  S
Co2371    Cl2382   2.472       .  S
N2372      C2383   1.328       .  A
C2373      C2546   1.455       .  S
Co2375    Cl2382   2.429       .  S
C2383      C4309   1.469       .  S
C2386      N2404   1.346       .  A
C2386      C2423   1.458       .  S
C2386      C2976   1.466       .  S
N2387      N2404   1.320       .  A
N2387      N2409   1.316       .  A
N2387     Co2424   2.063       .  S
C2388      N2413   1.361       .  A
C2388      C2426   1.490       .  S
C2388      H2433   1.081       .  S
H2389      C2430   1.081       .  S
C2390      N2414   1.327       .  A
C2390      C2394   1.449       .  S
C2390      H2419   1.079       .  S
Co2391     N2409   2.072       .  S
Co2391     N2399   2.043       .  S
Co2391     N2431   2.084       .  S
Co2391     N2407   2.036       .  S
Co2391    Cl2435   2.440       .  S
N2392      C2430   1.360       .  A
N2392      N2399   1.322       .  A
N2392     Co2393   2.160       .  S
Co2393     N2396   2.169       .  S
Co2393     N2413   2.175       .  S
Co2393     N2400   2.162       .  S
Co2393    Cl2435   2.474       .  S
C2394      N2432   1.374       .  A
C2394      C3779   1.513       .  S
N2395      N2402   1.313       .  A
N2395      N2425   1.321       .  A
N2395     Co2428   2.054       .  S
N2396      N2414   1.320       .  A
N2396      N2432   1.341       .  A
N2397      C2426   1.332       .  A
N2397      N2407   1.316       .  A
H2398      C2423   1.080       .  S
N2399      N2420   1.317       .  A
N2400      N2418   1.319       .  A
N2400      N2405   1.340       .  A
C2401      N2405   1.373       .  A
C2401      C2429   1.436       .  S
C2401      C3719   1.496       .  S
N2402      C2417   1.331       .  A
N2402     Co2424   2.050       .  S
C2403      N2431   1.345       .  A
C2403      C2406   1.467       .  S
C2403      H2437   1.080       .  S
C2406      N2427   1.345       .  A
C2406      C3216   1.475       .  S
N2407      N2413   1.325       .  A
N2408      C2434   1.332       .  A
N2408      N2410   1.314       .  A
N2408     Co2424   2.061       .  S
N2409      C2423   1.340       .  A
N2410      N2438   1.322       .  A
N2410     Co2428   2.072       .  S
H2411      C2434   1.082   1_455  S
H2412      C2429   1.081       .  S
N2414     Co2428   2.049       .  S
N2415      N2427   1.317       .  A
N2415      N2431   1.313       .  A
N2415     Co2424   2.050       .  S
C2416      N2420   1.336       .  A
C2416      C2430   1.490       .  S
C2416      C3806   1.497       .  S
C2417      C2436   1.452       .  S
C2417      H2421   1.081   1_655  S
N2418      C2429   1.323       .  A
N2418     Co2428   2.025       .  S
C2422      N2438   1.350       .  A
C2422      C2434   1.462       .  S
C2422      C3259   1.464   1_655  S
Co2424    Cl2435   2.445       .  S
N2425      C2436   1.345       .  A
C2426      C3659   1.485       .  S
Co2428    Cl2435   2.422       .  S
C2436      C2549   1.453   1_655  S
C2439      N2457   1.349       .  A
C2439      C2476   1.458       .  S
C2439      C3019   1.467       .  S
N2440      N2457   1.319       .  A
N2440      N2462   1.314       .  A
N2440     Co2477   2.066       .  S
C2441      N2466   1.359       .  A
C2441      C2479   1.497       .  S
C2441      H2486   1.079       .  S
H2442      C2483   1.081       .  S
C2443      N2467   1.325       .  A
C2443      C2447   1.437       .  S
C2443      H2472   1.081       .  S
Co2444     N2462   2.066       .  S
Co2444     N2452   2.038       .  S
Co2444     N2484   2.064       .  S
Co2444     N2460   2.040       .  S
Co2444    Cl2488   2.426       .  S
N2445      C2483   1.364       .  A
N2445      N2452   1.322       .  A
N2445     Co2446   2.163       .  S
Co2446     N2449   2.167       .  S
Co2446     N2466   2.162       .  S
Co2446     N2453   2.169       .  S
Co2446    Cl2488   2.473       .  S
C2447      N2485   1.372       .  A
C2447      C4019   1.497       .  S
N2448      N2455   1.315       .  A
N2448      N2478   1.322       .  A
N2448     Co2481   2.066       .  S
N2449      N2467   1.321       .  A
N2449      N2485   1.340       .  A
N2450      C2479   1.338       .  A
N2450      N2460   1.315       .  A
H2451      C2476   1.081       .  S
N2452      N2473   1.313       .  A
N2453      N2471   1.321       .  A
N2453      N2458   1.341       .  A
C2454      N2458   1.373       .  A
C2454      C2482   1.438       .  S
C2454      C3419   1.500       .  S
N2455      C2470   1.339       .  A
N2455     Co2477   2.075       .  S
C2456      N2484   1.338       .  A
C2456      C2459   1.456       .  S
C2456      H2490   1.081       .  S
C2459      N2480   1.346       .  A
C2459      C3366   1.456       .  S
N2460      N2466   1.321       .  A
N2461      C2487   1.337       .  A
N2461      N2463   1.314       .  A
N2461     Co2477   2.064       .  S
N2462      C2476   1.339       .  A
N2463      N2491   1.321       .  A
N2463     Co2481   2.064       .  S
H2464      C2487   1.081   1_455  S
H2465      C2482   1.081       .  S
N2467     Co2481   2.036       .  S
N2468      N2480   1.321       .  A
N2468      N2484   1.315       .  A
N2468     Co2477   2.066       .  S
C2469      N2473   1.334       .  A
C2469      C2483   1.494       .  S
C2469      C4099   1.496       .  S
C2470      C2489   1.461       .  S
C2470      H2474   1.081   1_655  S
N2471      C2482   1.323       .  A
N2471     Co2481   2.033       .  S
C2475      N2491   1.346       .  A
C2475      C2487   1.460       .  S
C2475      C2559   1.471       .  S
Co2477    Cl2488   2.465       .  S
N2478      C2489   1.347       .  A
C2479      C3459   1.507       .  S
Co2481    Cl2488   2.424       .  S
C2489      C3099   1.464       .  S
C2492      N2510   1.372       .  A
C2492      C2529   1.429       .  S
C2492      C4169   1.485       .  S
N2493      N2510   1.340       .  A
N2493      N2515   1.320       .  A
N2493     Co2530   2.172       .  S
C2494      N2519   1.338       .  A
C2494      C2532   1.456       .  S
C2494      H2539   1.080   1_565  S
H2495      C2536   1.081   1_545  S
C2496      N2520   1.341       .  A
C2496      C2500   1.463       .  S
C2496      H2525   1.081       .  S
Co2497     N2515   2.016       .  S
Co2497     N2505   2.060       .  S
Co2497     N2537   2.026       .  S
Co2497     N2513   2.051       .  S
Co2497    Cl2541   2.424       .  S
N2498      C2536   1.335       .  A
N2498      N2505   1.313       .  A
N2498     Co2499   2.062       .  S
Co2499     N2502   2.054       .  S
Co2499     N2519   2.062       .  S
Co2499     N2506   2.060       .  S
Co2499    Cl2541   2.465       .  S
C2500      N2538   1.346       .  A
C2500      C2569   1.463       .  S
N2501      N2508   1.322       .  A
N2501      N2531   1.315       .  A
N2501     Co2534   2.049       .  S
N2502      N2520   1.314       .  A
N2502      N2538   1.317       .  A
N2503      C2532   1.341       .  A
N2503      N2513   1.319       .  A
H2504      C2529   1.082       .  S
N2505      N2526   1.321       .  A
N2506      N2524   1.315       .  A
N2506      N2511   1.320       .  A
C2507      N2511   1.346       .  A
C2507      C2535   1.462       .  S
C2507      C3166   1.467   1_565  S
N2508      C2523   1.359       .  A
N2508     Co2530   2.157       .  S
C2509      N2537   1.323       .  A
C2509      C2512   1.430       .  S
C2509      H2543   1.081       .  S
C2512      N2533   1.373       .  A
C2512      C3586   1.489       .  S
N2513      N2519   1.314       .  A
N2514      C2540   1.360       .  A
N2514      N2516   1.322       .  A
N2514     Co2530   2.171       .  S
N2515      C2529   1.323       .  A
N2516      N2544   1.318       .  A
N2516     Co2534   2.048       .  S
H2517      C2540   1.078       .  S
H2518      C2535   1.081       .  S
N2520     Co2534   2.074       .  S
N2521      N2533   1.341       .  A
N2521      N2537   1.322       .  A
N2521     Co2530   2.175       .  S
C2522      N2526   1.346       .  A
C2522      C2536   1.460       .  S
C2522      C2719   1.470       .  S
C2523      C2542   1.496       .  S
C2523      H2527   1.079       .  S
N2524      C2535   1.338       .  A
N2524     Co2534   2.071       .  S
C2528      N2544   1.340       .  A
C2528      C2540   1.499       .  S
C2528      C3739   1.516       .  S
Co2530    Cl2541   2.469       .  S
N2531      C2542   1.339       .  A
C2532      C3316   1.455       .  S
Co2534    Cl2541   2.427       .  S
C2542      C4139   1.507       .  S
C2545      H2552   1.084   1_554  S
C2545      C2546   1.400       .  A
C2545      C2550   1.394       .  A
C2546      C2547   1.409       .  A
C2547      C2548   1.387       .  A
C2547     Br2554   1.923       .  S
C2548      H2553   1.084       .  S
C2548      C2549   1.400       .  A
C2549      C2550   1.404       .  A
C2550     Br2551   1.918   1_455  S
C2555      H2562   1.083   1_545  S
C2555      C2556   1.403       .  A
C2555      C2560   1.394   1_455  A
C2556      C2557   1.405       .  A
C2557      C2558   1.393       .  A
C2557     Br2564   1.914       .  S
C2558      H2563   1.083       .  S
C2558      C2559   1.403   1_455  A
C2559      C2560   1.413       .  A
C2560     Br2561   1.922       .  S
C2565      H2572   1.078       .  S
C2565      C2566   1.397       .  A
C2565      C2570   1.389       .  A
C2566      C2567   1.415       .  A
C2567      C2568   1.395       .  A
C2567     Br2574   1.921   1_554  S
C2568      H2573   1.083   1_545  S
C2568      C2569   1.400   1_545  A
C2569      C2570   1.406   1_565  A
C2570     Br2571   1.915       .  S
C2575      H2582   1.084       .  S
C2575      C2576   1.414       .  A
C2575      C2580   1.410       .  A
C2576      C2577   1.404       .  A
C2577      C2578   1.409       .  A
C2577     Br2584   1.917       .  S
C2578      H2583   1.083       .  S
C2578      C2579   1.417       .  A
C2579      C2580   1.409       .  A
C2580     Br2581   1.916       .  S
C2585      H2592   1.083       .  S
C2585      C2586   1.402       .  A
C2585      C2590   1.392       .  A
C2586      C2587   1.405       .  A
C2587      C2588   1.390       .  A
C2587     Br2594   1.920       .  S
C2588      H2593   1.084       .  S
C2588      C2589   1.399       .  A
C2589      C2590   1.409       .  A
C2590     Br2591   1.922       .  S
C2595      H2602   1.083       .  S
C2595      C2596   1.419       .  A
C2595      C2600   1.412       .  A
C2596      C2597   1.401       .  A
C2597      C2598   1.398       .  A
C2597     Br2604   1.919       .  S
C2598      H2603   1.080       .  S
C2598      C2599   1.421       .  A
C2599      C2600   1.407       .  A
C2600     Br2601   1.915       .  S
C2605      H2612   1.083       .  S
C2605      C2606   1.403       .  A
C2605      C2610   1.396       .  A
C2606      C2607   1.406       .  A
C2607      C2608   1.390       .  A
C2607     Br2614   1.920       .  S
C2608      H2613   1.081       .  S
C2608      C2609   1.401       .  A
C2609      C2610   1.412       .  A
C2610     Br2611   1.921       .  S
C2615      H2622   1.084       .  S
C2615      C2616   1.411       .  A
C2615      C2620   1.403       .  A
C2616      C2617   1.408       .  A
C2617      C2618   1.411       .  A
C2617     Br2624   1.916       .  S
C2618      H2623   1.083       .  S
C2618      C2619   1.411       .  A
C2619      C2620   1.406       .  A
C2620     Br2621   1.918       .  S
C2625      H2632   1.084       .  S
C2625      C2626   1.400       .  A
C2625      C2630   1.391       .  A
C2626      C2627   1.412       .  A
C2627      C2628   1.393       .  A
C2627     Br2634   1.921       .  S
C2628      H2633   1.084       .  S
C2628      C2629   1.400       .  A
C2629      C2630   1.405       .  A
C2630     Br2631   1.920       .  S
C2635      H2642   1.084       .  S
C2635      C2636   1.400       .  A
C2635      C2640   1.396       .  A
C2636      C2637   1.406       .  A
C2637      C2638   1.389       .  A
C2637     Br2644   1.921       .  S
C2638      H2643   1.084       .  S
C2638      C2639   1.398       .  A
C2639      C2640   1.404       .  A
C2640     Br2641   1.918       .  S
C2645      H2652   1.084       .  S
C2645      C2646   1.402       .  A
C2645      C2650   1.395       .  A
C2646      C2647   1.404       .  A
C2647      C2648   1.393       .  A
C2647     Br2654   1.919       .  S
C2648      H2653   1.083       .  S
C2648      C2649   1.401       .  A
C2649      C2650   1.408       .  A
C2650     Br2651   1.921       .  S
C2655      H2662   1.083       .  S
C2655      C2656   1.403       .  A
C2655      C2660   1.391       .  A
C2656      C2657   1.403       .  A
C2657      C2658   1.389       .  A
C2657     Br2664   1.920       .  S
C2658      H2663   1.083       .  S
C2658      C2659   1.400       .  A
C2659      C2660   1.409       .  A
C2660     Br2661   1.923       .  S
C2665      H2672   1.084       .  S
C2665      C2666   1.400       .  A
C2665      C2670   1.391       .  A
C2666      C2667   1.412       .  A
C2667      C2668   1.387       .  A
C2667     Br2674   1.925       .  S
C2668      H2673   1.082       .  S
C2668      C2669   1.401       .  A
C2669      C2670   1.408       .  A
C2670     Br2671   1.920       .  S
C2675      H2682   1.084       .  S
C2675      C2676   1.404       .  A
C2675      C2680   1.397       .  A
C2676      C2677   1.408       .  A
C2677      C2678   1.394       .  A
C2677     Br2684   1.920       .  S
C2678      H2683   1.083       .  S
C2678      C2679   1.406       .  A
C2679      C2680   1.408       .  A
C2680     Br2681   1.919       .  S
C2685      H2692   1.083       .  S
C2685      C2686   1.401       .  A
C2685      C2690   1.398       .  A
C2686      C2687   1.405       .  A
C2687      C2688   1.389       .  A
C2687     Br2694   1.912       .  S
C2688      H2693   1.082       .  S
C2688      C2689   1.402       .  A
C2689      C2690   1.417       .  A
C2690     Br2691   1.921       .  S
C2695      H2702   1.077       .  S
C2695      C2696   1.401       .  A
C2695      C2700   1.384       .  A
C2696      C2697   1.413       .  A
C2697      C2698   1.395       .  A
C2697     Br2704   1.923       .  S
C2698      H2703   1.081       .  S
C2698      C2699   1.405       .  A
C2699      C2700   1.408       .  A
C2700     Br2701   1.922       .  S
C2705      H2712   1.084       .  S
C2705      C2706   1.414       .  A
C2705      C2710   1.404       .  A
C2706      C2707   1.403       .  A
C2707      C2708   1.402       .  A
C2707     Br2714   1.918       .  S
C2708      H2713   1.083       .  S
C2708      C2709   1.415       .  A
C2709      C2710   1.404       .  A
C2710     Br2711   1.916       .  S
C2715      H2722   1.083       .  S
C2715      C2716   1.402       .  A
C2715      C2720   1.396   1_545  A
C2716      C2717   1.404       .  A
C2717      C2718   1.389       .  A
C2717     Br2724   1.913       .  S
C2718      H2723   1.079       .  S
C2718      C2719   1.400   1_545  A
C2719      C2720   1.413       .  A
C2720     Br2721   1.922       .  S
C2725      H2732   1.077       .  S
C2725      C2726   1.400       .  A
C2725      C2730   1.387       .  A
C2726      C2727   1.414       .  A
C2727      C2728   1.396       .  A
C2727     Br2734   1.922       .  S
C2728      H2733   1.083   1_554  S
C2728      C2729   1.403       .  A
C2729      C2730   1.400       .  A
C2730     Br2731   1.913       .  S
C2735      H2742   1.083       .  S
C2735      C2736   1.415       .  A
C2735      C2740   1.409       .  A
C2736      C2737   1.410       .  A
C2737      C2738   1.410       .  A
C2737     Br2744   1.917       .  S
C2738      H2743   1.083       .  S
C2738      C2739   1.412       .  A
C2739      C2740   1.406       .  A
C2740     Br2741   1.917       .  S
C2745      H2752   1.083       .  S
C2745      C2746   1.399       .  A
C2745      C2750   1.398   1_556  A
C2746      C2747   1.405   1_556  A
C2747      C2748   1.390       .  A
C2747     Br2754   1.910       .  S
C2748      H2753   1.083       .  S
C2748      C2749   1.399       .  A
C2749      C2750   1.418       .  A
C2750     Br2751   1.922       .  S
C2755      H2762   1.084       .  S
C2755      C2756   1.399       .  A
C2755      C2760   1.404       .  A
C2756      C2757   1.416       .  A
C2757      C2758   1.410       .  A
C2757     Br2764   1.918       .  S
C2758      H2763   1.083       .  S
C2758      C2759   1.402       .  A
C2759      C2760   1.420       .  A
C2760     Br2761   1.919       .  S
C2765      H2772   1.083       .  S
C2765      C2766   1.417       .  A
C2765      C2770   1.411       .  A
C2766      C2767   1.405       .  A
C2767      C2768   1.403       .  A
C2767     Br2774   1.919       .  S
C2768      H2773   1.080       .  S
C2768      C2769   1.417       .  A
C2769      C2770   1.410       .  A
C2770     Br2771   1.918       .  S
C2775      H2782   1.084       .  S
C2775      C2776   1.401       .  A
C2775      C2780   1.391       .  A
C2776      C2777   1.400       .  A
C2777      C2778   1.389       .  A
C2777     Br2784   1.919       .  S
C2778      H2783   1.075       .  S
C2778      C2779   1.399       .  A
C2779      C2780   1.411       .  A
C2780     Br2781   1.922   1_545  S
C2785      H2792   1.077       .  S
C2785      C2786   1.401       .  A
C2785      C2790   1.393       .  A
C2786      C2787   1.411       .  A
C2787      C2788   1.394       .  A
C2787     Br2794   1.921       .  S
C2788      H2793   1.083       .  S
C2788      C2789   1.404       .  A
C2789      C2790   1.405       .  A
C2790     Br2791   1.917       .  S
C2795      H2802   1.075       .  S
C2795      C2796   1.396       .  A
C2795      C2800   1.381       .  A
C2796      C2797   1.413       .  A
C2797      C2798   1.398       .  A
C2797     Br2804   1.922       .  S
C2798      H2803   1.082       .  S
C2798      C2799   1.406       .  A
C2799      C2800   1.407       .  A
C2800     Br2801   1.918       .  S
C2805      H2812   1.083       .  S
C2805      C2806   1.412       .  A
C2805      C2810   1.410       .  A
C2806      C2807   1.403       .  A
C2807      C2808   1.404       .  A
C2807     Br2814   1.920       .  S
C2808      H2813   1.081       .  S
C2808      C2809   1.418       .  A
C2809      C2810   1.410       .  A
C2810     Br2811   1.916       .  S
C2815      H2822   1.083       .  S
C2815      C2816   1.403       .  A
C2815      C2820   1.404       .  A
C2816      C2817   1.405       .  A
C2817      C2818   1.394       .  A
C2817     Br2824   1.910       .  S
C2818      H2823   1.081       .  S
C2818      C2819   1.403       .  A
C2819      C2820   1.417       .  A
C2820     Br2821   1.920       .  S
C2825      H2832   1.081       .  S
C2825      C2826   1.418       .  A
C2825      C2830   1.406       .  A
C2826      C2827   1.403       .  A
C2827      C2828   1.399       .  A
C2827     Br2834   1.921       .  S
C2828      H2833   1.079       .  S
C2828      C2829   1.419       .  A
C2829      C2830   1.406       .  A
C2830     Br2831   1.918       .  S
C2835      H2842   1.078       .  S
C2835      C2836   1.402       .  A
C2835      C2840   1.388       .  A
C2836      C2837   1.412       .  A
C2837      C2838   1.397       .  A
C2837     Br2844   1.922       .  S
C2838      H2843   1.082       .  S
C2838      C2839   1.406       .  A
C2839      C2840   1.407       .  A
C2840     Br2841   1.922       .  S
C2845      H2852   1.084       .  S
C2845      C2846   1.397       .  A
C2845      C2850   1.393       .  A
C2846      C2847   1.404       .  A
C2847      C2848   1.390       .  A
C2847     Br2854   1.913       .  S
C2848      H2853   1.083       .  S
C2848      C2849   1.401       .  A
C2849      C2850   1.419       .  A
C2850     Br2851   1.924       .  S
C2855      H2862   1.083       .  S
C2855      C2856   1.408       .  A
C2855      C2860   1.409       .  A
C2856      C2857   1.410       .  A
C2857      C2858   1.408       .  A
C2857     Br2864   1.918       .  S
C2858      H2863   1.084       .  S
C2858      C2859   1.408       .  A
C2859      C2860   1.408       .  A
C2860     Br2861   1.917       .  S
C2865      H2872   1.083       .  S
C2865      C2866   1.404       .  A
C2865      C2870   1.395       .  A
C2866      C2867   1.402       .  A
C2867      C2868   1.388       .  A
C2867     Br2874   1.915       .  S
C2868      H2873   1.075       .  S
C2868      C2869   1.399       .  A
C2869      C2870   1.411       .  A
C2870     Br2871   1.921       .  S
C2875      H2882   1.080       .  S
C2875      C2876   1.424       .  A
C2875      C2880   1.406       .  A
C2876      C2877   1.407       .  A
C2877      C2878   1.411       .  A
C2877     Br2884   1.914       .  S
C2878      H2883   1.083       .  S
C2878      C2879   1.418       .  A
C2879      C2880   1.402       .  A
C2880     Br2881   1.919       .  S
C2885      H2892   1.078       .  S
C2885      C2886   1.419       .  A
C2885      C2890   1.401       .  A
C2886      C2887   1.408       .  A
C2887      C2888   1.405       .  A
C2887     Br2894   1.919       .  S
C2888      H2893   1.082       .  S
C2888      C2889   1.415       .  A
C2889      C2890   1.401       .  A
C2890     Br2891   1.920       .  S
C2895      H2902   1.077       .  S
C2895      C2896   1.401       .  A
C2895      C2900   1.391       .  A
C2896      C2897   1.411       .  A
C2897      C2898   1.396       .  A
C2897     Br2904   1.921       .  S
C2898      H2903   1.083       .  S
C2898      C2899   1.405       .  A
C2899      C2900   1.406       .  A
C2900     Br2901   1.920       .  S
C2905      H2912   1.084       .  S
C2905      C2906   1.396       .  A
C2905      C2910   1.389       .  A
C2906      C2907   1.403       .  A
C2907      C2908   1.391       .  A
C2907     Br2914   1.911       .  S
C2908      H2913   1.084       .  S
C2908      C2909   1.398       .  A
C2909      C2910   1.413       .  A
C2910     Br2911   1.923       .  S
C2915      H2922   1.082       .  S
C2915      C2916   1.404       .  A
C2915      C2920   1.388       .  A
C2916      C2917   1.402       .  A
C2917      C2918   1.391       .  A
C2917     Br2924   1.920       .  S
C2918      H2923   1.082       .  S
C2918      C2919   1.404       .  A
C2919      C2920   1.409       .  A
C2920     Br2921   1.921       .  S
C2925      H2932   1.083       .  S
C2925      C2926   1.400       .  A
C2925      C2930   1.392       .  A
C2926      C2927   1.415       .  A
C2927      C2928   1.393       .  A
C2927     Br2934   1.922       .  S
C2928      H2933   1.084       .  S
C2928      C2929   1.398       .  A
C2929      C2930   1.403       .  A
C2930     Br2931   1.913       .  S
C2935      H2942   1.084       .  S
C2935      C2936   1.405       .  A
C2935      C2940   1.398       .  A
C2936      C2937   1.412       .  A
C2937      C2938   1.391       .  A
C2937     Br2944   1.921       .  S
C2938      H2943   1.084       .  S
C2938      C2939   1.399       .  A
C2939      C2940   1.407       .  A
C2940     Br2941   1.921       .  S
C2945      H2952   1.084       .  S
C2945      C2946   1.415       .  A
C2945      C2950   1.406       .  A
C2946      C2947   1.401       .  A
C2947      C2948   1.402       .  A
C2947     Br2954   1.918       .  S
C2948      H2953   1.082       .  S
C2948      C2949   1.418       .  A
C2949      C2950   1.407       .  A
C2950     Br2951   1.916       .  S
C2955      H2962   1.083       .  S
C2955      C2956   1.406       .  A
C2955      C2960   1.405       .  A
C2956      C2957   1.406       .  A
C2957      C2958   1.402       .  A
C2957     Br2964   1.920       .  S
C2958      H2963   1.084       .  S
C2958      C2959   1.407       .  A
C2959      C2960   1.407       .  A
C2960     Br2961   1.917       .  S
C2965      H2972   1.083   1_554  S
C2965      C2966   1.399       .  A
C2965      C2970   1.388       .  A
C2966      C2967   1.403       .  A
C2967      C2968   1.390       .  A
C2967     Br2974   1.921       .  S
C2968      H2973   1.084       .  S
C2968      C2969   1.405       .  A
C2969      C2970   1.415       .  A
C2970     Br2971   1.921       .  S
C2975      H2982   1.082       .  S
C2975      C2976   1.400       .  A
C2975      C2980   1.393   1_655  A
C2976      C2977   1.408   1_655  A
C2977      C2978   1.391       .  A
C2977     Br2984   1.920       .  S
C2978      H2983   1.082       .  S
C2978      C2979   1.402       .  A
C2979      C2980   1.413       .  A
C2980     Br2981   1.922       .  S
C2985      H2992   1.083       .  S
C2985      C2986   1.418       .  A
C2985      C2990   1.405       .  A
C2986      C2987   1.409       .  A
C2987      C2988   1.406       .  A
C2987     Br2994   1.916       .  S
C2988      H2993   1.083       .  S
C2988      C2989   1.414       .  A
C2989      C2990   1.403       .  A
C2990     Br2991   1.918       .  S
C2995      H3002   1.083       .  S
C2995      C2996   1.403       .  A
C2995      C3000   1.395       .  A
C2996      C2997   1.409       .  A
C2997      C2998   1.389       .  A
C2997     Br3004   1.921       .  S
C2998      H3003   1.084       .  S
C2998      C2999   1.402       .  A
C2999      C3000   1.404       .  A
C3000     Br3001   1.915       .  S
C3005      H3012   1.084       .  S
C3005      C3006   1.414       .  A
C3005      C3010   1.408       .  A
C3006      C3007   1.400       .  A
C3007      C3008   1.398       .  A
C3007     Br3014   1.920       .  S
C3008      H3013   1.082       .  S
C3008      C3009   1.415       .  A
C3009      C3010   1.404       .  A
C3010     Br3011   1.915       .  S
C3015      H3022   1.080       .  S
C3015      C3016   1.394       .  A
C3015      C3020   1.383       .  A
C3016      C3017   1.413       .  A
C3017      C3018   1.398   1_455  A
C3017     Br3024   1.920       .  S
C3018      H3023   1.082       .  S
C3018      C3019   1.404       .  A
C3019      C3020   1.405   1_655  A
C3020     Br3021   1.907       .  S
C3025      H3032   1.084       .  S
C3025      C3026   1.404       .  A
C3025      C3030   1.401       .  A
C3026      C3027   1.409       .  A
C3027      C3028   1.408       .  A
C3027     Br3034   1.917       .  S
C3028      H3033   1.083       .  S
C3028      C3029   1.406       .  A
C3029      C3030   1.408       .  A
C3030     Br3031   1.919       .  S
C3035      H3042   1.083       .  S
C3035      C3036   1.397       .  A
C3035      C3040   1.394       .  A
C3036      C3037   1.404       .  A
C3037      C3038   1.390       .  A
C3037     Br3044   1.908       .  S
C3038      H3043   1.081       .  S
C3038      C3039   1.397       .  A
C3039      C3040   1.417       .  A
C3040     Br3041   1.923       .  S
C3045      H3052   1.084       .  S
C3045      C3046   1.415       .  A
C3045      C3050   1.407       .  A
C3046      C3047   1.402       .  A
C3047      C3048   1.402       .  A
C3047     Br3054   1.919       .  S
C3048      H3053   1.083       .  S
C3048      C3049   1.418       .  A
C3049      C3050   1.405       .  A
C3050     Br3051   1.915       .  S
C3055      H3062   1.084       .  S
C3055      C3056   1.400       .  A
C3055      C3060   1.393       .  A
C3056      C3057   1.404       .  A
C3057      C3058   1.391       .  A
C3057     Br3064   1.918       .  S
C3058      H3063   1.084       .  S
C3058      C3059   1.398       .  A
C3059      C3060   1.410       .  A
C3060     Br3061   1.922       .  S
C3065      H3072   1.082       .  S
C3065      C3066   1.400       .  A
C3065      C3070   1.392       .  A
C3066      C3067   1.414       .  A
C3067      C3068   1.397       .  A
C3067     Br3074   1.921       .  S
C3068      H3073   1.083       .  S
C3068      C3069   1.401       .  A
C3069      C3070   1.405       .  A
C3070     Br3071   1.917       .  S
C3075      H3082   1.081       .  S
C3075      C3076   1.396       .  A
C3075      C3080   1.385       .  A
C3076      C3077   1.416       .  A
C3077      C3078   1.393   1_545  A
C3077     Br3084   1.922       .  S
C3078      H3083   1.082       .  S
C3078      C3079   1.400       .  A
C3079      C3080   1.405   1_565  A
C3080     Br3081   1.906       .  S
C3085      H3092   1.084       .  S
C3085      C3086   1.401       .  A
C3085      C3090   1.391       .  A
C3086      C3087   1.412       .  A
C3087      C3088   1.390       .  A
C3087     Br3094   1.922       .  S
C3088      H3093   1.082       .  S
C3088      C3089   1.402       .  A
C3089      C3090   1.405       .  A
C3090     Br3091   1.915       .  S
C3095      H3102   1.084       .  S
C3095      C3096   1.399       .  A
C3095      C3100   1.395       .  A
C3096      C3097   1.411       .  A
C3097      C3098   1.395       .  A
C3097     Br3104   1.921       .  S
C3098      H3103   1.084   1_455  S
C3098      C3099   1.400   1_455  A
C3099      C3100   1.403   1_655  A
C3100     Br3101   1.911   1_455  S
C3105      H3112   1.082       .  S
C3105      C3106   1.399       .  A
C3105      C3110   1.387       .  A
C3106      C3107   1.414       .  A
C3107      C3108   1.396       .  A
C3107     Br3114   1.920       .  S
C3108      H3113   1.083       .  S
C3108      C3109   1.401       .  A
C3109      C3110   1.403       .  A
C3110     Br3111   1.908       .  S
C3115      H3122   1.083       .  S
C3115      C3116   1.406       .  A
C3115      C3120   1.403       .  A
C3116      C3117   1.413       .  A
C3117      C3118   1.389       .  A
C3117     Br3124   1.925       .  S
C3118      H3123   1.083       .  S
C3118      C3119   1.401       .  A
C3119      C3120   1.406       .  A
C3120     Br3121   1.918       .  S
C3125      H3132   1.084       .  S
C3125      C3126   1.400       .  A
C3125      C3130   1.398       .  A
C3126      C3127   1.412       .  A
C3127      C3128   1.392       .  A
C3127     Br3134   1.922       .  S
C3128      H3133   1.083       .  S
C3128      C3129   1.400       .  A
C3129      C3130   1.418       .  A
C3130     Br3131   1.923       .  S
C3135      H3142   1.081       .  S
C3135      C3136   1.405       .  A
C3135      C3140   1.390       .  A
C3136      C3137   1.403       .  A
C3137      C3138   1.392       .  A
C3137     Br3144   1.919       .  S
C3138      H3143   1.081       .  S
C3138      C3139   1.403       .  A
C3139      C3140   1.409       .  A
C3140     Br3141   1.920       .  S
C3145      H3152   1.084       .  S
C3145      C3146   1.399       .  A
C3145      C3150   1.388       .  A
C3146      C3147   1.401       .  A
C3147      C3148   1.393       .  A
C3147     Br3154   1.917       .  S
C3148      H3153   1.084       .  S
C3148      C3149   1.398       .  A
C3149      C3150   1.406       .  A
C3150     Br3151   1.923       .  S
C3155      H3162   1.083       .  S
C3155      C3156   1.401       .  A
C3155      C3160   1.396       .  A
C3156      C3157   1.410       .  A
C3157      C3158   1.393       .  A
C3157     Br3164   1.919       .  S
C3158      H3163   1.083       .  S
C3158      C3159   1.401       .  A
C3159      C3160   1.415       .  A
C3160     Br3161   1.922   1_554  S
C3165      H3172   1.082   1_545  S
C3165      C3166   1.401       .  A
C3165      C3170   1.392       .  A
C3166      C3167   1.409       .  A
C3167      C3168   1.391       .  A
C3167     Br3174   1.919       .  S
C3168      H3173   1.083       .  S
C3168      C3169   1.403       .  A
C3169      C3170   1.414       .  A
C3170     Br3171   1.923       .  S
C3175      H3182   1.084       .  S
C3175      C3176   1.416       .  A
C3175      C3180   1.404       .  A
C3176      C3177   1.402       .  A
C3177      C3178   1.402       .  A
C3177     Br3184   1.907       .  S
C3178      H3183   1.084       .  S
C3178      C3179   1.415       .  A
C3179      C3180   1.404       .  A
C3180     Br3181   1.916       .  S
C3185      H3192   1.083       .  S
C3185      C3186   1.413       .  A
C3185      C3190   1.409       .  A
C3186      C3187   1.401       .  A
C3187      C3188   1.400       .  A
C3187     Br3194   1.909       .  S
C3188      H3193   1.083       .  S
C3188      C3189   1.414       .  A
C3189      C3190   1.411       .  A
C3190     Br3191   1.916       .  S
C3195      H3202   1.084       .  S
C3195      C3196   1.397       .  A
C3195      C3200   1.389       .  A
C3196      C3197   1.406       .  A
C3197      C3198   1.397       .  A
C3197     Br3204   1.918       .  S
C3198      H3203   1.083       .  S
C3198      C3199   1.400       .  A
C3199      C3200   1.407       .  A
C3200     Br3201   1.923       .  S
C3205      H3212   1.083       .  S
C3205      C3206   1.400       .  A
C3205      C3210   1.397       .  A
C3206      C3207   1.408       .  A
C3207      C3208   1.394       .  A
C3207     Br3214   1.921       .  S
C3208      H3213   1.084       .  S
C3208      C3209   1.402       .  A
C3209      C3210   1.413       .  A
C3210     Br3211   1.921       .  S
C3215      H3222   1.084       .  S
C3215      C3216   1.406   1_455  A
C3215      C3220   1.393       .  A
C3216      C3217   1.412       .  A
C3217      C3218   1.398   1_655  A
C3217     Br3224   1.918       .  S
C3218      H3223   1.083       .  S
C3218      C3219   1.404       .  A
C3219      C3220   1.403       .  A
C3220     Br3221   1.919       .  S
C3225      H3232   1.084       .  S
C3225      C3226   1.399       .  A
C3225      C3230   1.388       .  A
C3226      C3227   1.405       .  A
C3227      C3228   1.391       .  A
C3227     Br3234   1.922       .  S
C3228      H3233   1.082       .  S
C3228      C3229   1.403       .  A
C3229      C3230   1.413       .  A
C3230     Br3231   1.924       .  S
C3235      H3242   1.083       .  S
C3235      C3236   1.398       .  A
C3235      C3240   1.390       .  A
C3236      C3237   1.403       .  A
C3237      C3238   1.389       .  A
C3237     Br3244   1.914       .  S
C3238      H3243   1.077       .  S
C3238      C3239   1.399       .  A
C3239      C3240   1.416       .  A
C3240     Br3241   1.924   1_554  S
C3245      H3252   1.083       .  S
C3245      C3246   1.402       .  A
C3245      C3250   1.395       .  A
C3246      C3247   1.404       .  A
C3247      C3248   1.391       .  A
C3247     Br3254   1.920       .  S
C3248      H3253   1.079       .  S
C3248      C3249   1.400       .  A
C3249      C3250   1.413       .  A
C3250     Br3251   1.922       .  S
C3255      H3262   1.083       .  S
C3255      C3256   1.406       .  A
C3255      C3260   1.401   1_455  A
C3256      C3257   1.408       .  A
C3257      C3258   1.384       .  A
C3257     Br3264   1.924       .  S
C3258      H3263   1.084       .  S
C3258      C3259   1.400       .  A
C3259      C3260   1.406   1_455  A
C3260     Br3261   1.918       .  S
C3265      H3272   1.083       .  S
C3265      C3266   1.416       .  A
C3265      C3270   1.408       .  A
C3266      C3267   1.410       .  A
C3267      C3268   1.410       .  A
C3267     Br3274   1.916       .  S
C3268      H3273   1.084       .  S
C3268      C3269   1.413       .  A
C3269      C3270   1.405       .  A
C3270     Br3271   1.917       .  S
C3275      H3282   1.082       .  S
C3275      C3276   1.419       .  A
C3275      C3280   1.401       .  A
C3276      C3277   1.405       .  A
C3277      C3278   1.408       .  A
C3277     Br3284   1.915       .  S
C3278      H3283   1.084       .  S
C3278      C3279   1.414       .  A
C3279      C3280   1.401       .  A
C3280     Br3281   1.921       .  S
C3285      H3292   1.112       .  S
C3285      C3286   1.396       .  A
C3285      C3290   1.383       .  A
C3286      C3287   1.410       .  A
C3287      C3288   1.389       .  A
C3287     Br3294   1.923       .  S
C3288      H3293   1.088       .  S
C3288      C3289   1.403       .  A
C3289      C3290   1.400       .  A
C3290     Br3291   1.917       .  S
C3295      H3302   1.084       .  S
C3295      C3296   1.402       .  A
C3295      C3300   1.389       .  A
C3296      C3297   1.414       .  A
C3297      C3298   1.397       .  A
C3297     Br3304   1.918       .  S
C3298      H3303   1.081       .  S
C3298      C3299   1.405       .  A
C3299      C3300   1.413       .  A
C3300     Br3301   1.920       .  S
C3305      H3312   1.083       .  S
C3305      C3306   1.405       .  A
C3305      C3310   1.401       .  A
C3306      C3307   1.406       .  A
C3307      C3308   1.387       .  A
C3307     Br3314   1.918       .  S
C3308      H3313   1.081       .  S
C3308      C3309   1.400       .  A
C3309      C3310   1.413       .  A
C3310     Br3311   1.919       .  S
C3315      H3322   1.083       .  S
C3315      C3316   1.399   1_545  A
C3315      C3320   1.393       .  A
C3316      C3317   1.408   1_565  A
C3317      C3318   1.391       .  A
C3317     Br3324   1.921   1_545  S
C3318      H3323   1.084       .  S
C3318      C3319   1.400       .  A
C3319      C3320   1.404       .  A
C3320     Br3321   1.917       .  S
C3325      H3332   1.081       .  S
C3325      C3326   1.420       .  A
C3325      C3330   1.404       .  A
C3326      C3327   1.408       .  A
C3327      C3328   1.410       .  A
C3327     Br3334   1.916       .  S
C3328      H3333   1.083       .  S
C3328      C3329   1.417       .  A
C3329      C3330   1.401       .  A
C3330     Br3331   1.918       .  S
C3335      H3342   1.084       .  S
C3335      C3336   1.415       .  A
C3335      C3340   1.408       .  A
C3336      C3337   1.403       .  A
C3337      C3338   1.403       .  A
C3337     Br3344   1.918       .  S
C3338      H3343   1.083       .  S
C3338      C3339   1.415       .  A
C3339      C3340   1.406       .  A
C3340     Br3341   1.916       .  S
C3345      H3352   1.084       .  S
C3345      C3346   1.401       .  A
C3345      C3350   1.392       .  A
C3346      C3347   1.411       .  A
C3347      C3348   1.389       .  A
C3347     Br3354   1.923       .  S
C3348      H3353   1.084       .  S
C3348      C3349   1.399       .  A
C3349      C3350   1.404       .  A
C3350     Br3351   1.917       .  S
C3355      H3362   1.082       .  S
C3355      C3356   1.404       .  A
C3355      C3360   1.395       .  A
C3356      C3357   1.409       .  A
C3357      C3358   1.396       .  A
C3357     Br3364   1.919       .  S
C3358      H3363   1.083       .  S
C3358      C3359   1.405       .  A
C3359      C3360   1.405       .  A
C3360     Br3361   1.920       .  S
C3365      H3372   1.084   1_455  S
C3365      C3366   1.399   1_455  A
C3365      C3370   1.391       .  A
C3366      C3367   1.405   1_655  A
C3367      C3368   1.395       .  A
C3367     Br3374   1.918       .  S
C3368      H3373   1.084       .  S
C3368      C3369   1.400       .  A
C3369      C3370   1.408       .  A
C3370     Br3371   1.921       .  S
C3375      H3382   1.080       .  S
C3375      C3376   1.399       .  A
C3375      C3380   1.391       .  A
C3376      C3377   1.409       .  A
C3377      C3378   1.396       .  A
C3377     Br3384   1.920   1_545  S
C3378      H3383   1.084       .  S
C3378      C3379   1.403       .  A
C3379      C3380   1.406       .  A
C3380     Br3381   1.920       .  S
C3385      H3392   1.083       .  S
C3385      C3386   1.408       .  A
C3385      C3390   1.412       .  A
C3386      C3387   1.411       .  A
C3387      C3388   1.409       .  A
C3387     Br3394   1.919       .  S
C3388      H3393   1.084       .  S
C3388      C3389   1.410       .  A
C3389      C3390   1.410       .  A
C3390     Br3391   1.915       .  S
C3395      H3402   1.083       .  S
C3395      C3396   1.415       .  A
C3395      C3400   1.410       .  A
C3396      C3397   1.402       .  A
C3397      C3398   1.400       .  A
C3397     Br3404   1.919       .  S
C3398      H3403   1.082       .  S
C3398      C3399   1.413       .  A
C3399      C3400   1.406       .  A
C3400     Br3401   1.916       .  S
C3405      H3412   1.083       .  S
C3405      C3406   1.395       .  A
C3405      C3410   1.407   1_655  A
C3406      C3407   1.432       .  A
C3407      C3408   1.404   1_655  A
C3407     Br3414   1.925       .  S
C3408      H3413   1.083       .  S
C3408      C3409   1.395       .  A
C3409      C3410   1.433       .  A
C3410     Br3411   1.922       .  S
C3415      H3422   1.083       .  S
C3415      C3416   1.415       .  A
C3415      C3420   1.411   1_565  A
C3416      C3417   1.401       .  A
C3417      C3418   1.401   1_565  A
C3417     Br3424   1.919       .  S
C3418      H3423   1.082       .  S
C3418      C3419   1.416       .  A
C3419      C3420   1.408       .  A
C3420     Br3421   1.917       .  S
C3425      H3432   1.083       .  S
C3425      C3426   1.415       .  A
C3425      C3430   1.402       .  A
C3426      C3427   1.406       .  A
C3427      C3428   1.408       .  A
C3427     Br3434   1.917       .  S
C3428      H3433   1.084       .  S
C3428      C3429   1.415       .  A
C3429      C3430   1.402       .  A
C3430     Br3431   1.918       .  S
C3435      H3442   1.084       .  S
C3435      C3436   1.414       .  A
C3435      C3440   1.400       .  A
C3436      C3437   1.405       .  A
C3437      C3438   1.406       .  A
C3437     Br3444   1.916       .  S
C3438      H3443   1.084       .  S
C3438      C3439   1.411       .  A
C3439      C3440   1.402       .  A
C3440     Br3441   1.919       .  S
C3445      H3452   1.084       .  S
C3445      C3446   1.416       .  A
C3445      C3450   1.404   1_455  A
C3446      C3447   1.408       .  A
C3447      C3448   1.409   1_455  A
C3447     Br3454   1.915       .  S
C3448      H3453   1.084       .  S
C3448      C3449   1.415       .  A
C3449      C3450   1.403       .  A
C3450     Br3451   1.916       .  S
C3455      H3462   1.083       .  S
C3455      C3456   1.416       .  A
C3455      C3460   1.406       .  A
C3456      C3457   1.405       .  A
C3457      C3458   1.405       .  A
C3457     Br3464   1.914       .  S
C3458      H3463   1.083       .  S
C3458      C3459   1.420       .  A
C3459      C3460   1.409       .  A
C3460     Br3461   1.915       .  S
C3465      H3472   1.083       .  S
C3465      C3466   1.404       .  A
C3465      C3470   1.395   1_565  A
C3466      C3467   1.407       .  A
C3467      C3468   1.391   1_565  A
C3467     Br3474   1.919       .  S
C3468      H3473   1.084       .  S
C3468      C3469   1.404       .  A
C3469      C3470   1.412       .  A
C3470     Br3471   1.919       .  S
C3475      H3482   1.082       .  S
C3475      C3476   1.420       .  A
C3475      C3480   1.402       .  A
C3476      C3477   1.407       .  A
C3477      C3478   1.404       .  A
C3477     Br3484   1.916       .  S
C3478      H3483   1.082       .  S
C3478      C3479   1.416       .  A
C3479      C3480   1.400       .  A
C3480     Br3481   1.919       .  S
C3485      H3492   1.082       .  S
C3485      C3486   1.416       .  A
C3485      C3490   1.406       .  A
C3486      C3487   1.403       .  A
C3487      C3488   1.405       .  A
C3487     Br3494   1.920       .  S
C3488      H3493   1.079       .  S
C3488      C3489   1.421       .  A
C3489      C3490   1.407       .  A
C3490     Br3491   1.917       .  S
C3495      H3502   1.083       .  S
C3495      C3496   1.415       .  A
C3495      C3500   1.400   1_565  A
C3496      C3497   1.405       .  A
C3497      C3498   1.406   1_565  A
C3497     Br3504   1.916       .  S
C3498      H3503   1.084       .  S
C3498      C3499   1.413       .  A
C3499      C3500   1.401       .  A
C3500     Br3501   1.920       .  S
C3505      H3512   1.084       .  S
C3505      C3506   1.402       .  A
C3505      C3510   1.385   1_545  A
C3506      C3507   1.404       .  A
C3507      C3508   1.394   1_545  A
C3507     Br3514   1.919       .  S
C3508      H3513   1.083   1_655  S
C3508      C3509   1.402   1_655  A
C3509      C3510   1.404   1_455  A
C3510     Br3511   1.922   1_655  S
C3515      H3522   1.083       .  S
C3515      C3516   1.414       .  A
C3515      C3520   1.410       .  A
C3516      C3517   1.402       .  A
C3517      C3518   1.400       .  A
C3517     Br3524   1.920       .  S
C3518      H3523   1.081       .  S
C3518      C3519   1.418       .  A
C3519      C3520   1.407       .  A
C3520     Br3521   1.916       .  S
C3525      H3532   1.084       .  S
C3525      C3526   1.400       .  A
C3525      C3530   1.387       .  A
C3526      C3527   1.404       .  A
C3527      C3528   1.394       .  A
C3527     Br3534   1.918       .  S
C3528      H3533   1.083       .  S
C3528      C3529   1.400       .  A
C3529      C3530   1.406       .  A
C3530     Br3531   1.922       .  S
C3535      H3542   1.083       .  S
C3535      C3536   1.409       .  A
C3535      C3540   1.397       .  A
C3536      C3537   1.411       .  A
C3537      C3538   1.388       .  A
C3537     Br3544   1.912       .  S
C3538      H3543   1.083       .  S
C3538      C3539   1.401       .  A
C3539      C3540   1.408       .  A
C3540     Br3541   1.920       .  S
C3545      H3552   1.083       .  S
C3545      C3546   1.415       .  A
C3545      C3550   1.411       .  A
C3546      C3547   1.398       .  A
C3547      C3548   1.398       .  A
C3547     Br3554   1.921       .  S
C3548      H3553   1.080       .  S
C3548      C3549   1.420       .  A
C3549      C3550   1.407       .  A
C3550     Br3551   1.916       .  S
C3555      H3562   1.081       .  S
C3555      C3556   1.419       .  A
C3555      C3560   1.405       .  A
C3556      C3557   1.406       .  A
C3557      C3558   1.409       .  A
C3557     Br3564   1.915       .  S
C3558      H3563   1.083       .  S
C3558      C3559   1.417       .  A
C3559      C3560   1.402       .  A
C3560     Br3561   1.918       .  S
C3565      H3572   1.083       .  S
C3565      C3566   1.414       .  A
C3565      C3570   1.403   1_565  A
C3566      C3567   1.406       .  A
C3567      C3568   1.405   1_565  A
C3567     Br3574   1.916       .  S
C3568      H3573   1.084       .  S
C3568      C3569   1.410       .  A
C3569      C3570   1.403       .  A
C3570     Br3571   1.920       .  S
C3575      H3582   1.079       .  S
C3575      C3576   1.401       .  A
C3575      C3580   1.389       .  A
C3576      C3577   1.416       .  A
C3577      C3578   1.401   1_565  A
C3577     Br3584   1.920       .  S
C3578      H3583   1.082       .  S
C3578      C3579   1.403   1_545  A
C3579      C3580   1.410       .  A
C3580     Br3581   1.918       .  S
C3585      H3592   1.084       .  S
C3585      C3586   1.413       .  A
C3585      C3590   1.401       .  A
C3586      C3587   1.406       .  A
C3587      C3588   1.409       .  A
C3587     Br3594   1.916       .  S
C3588      H3593   1.083       .  S
C3588      C3589   1.412       .  A
C3589      C3590   1.402       .  A
C3590     Br3591   1.918       .  S
C3595      H3602   1.084       .  S
C3595      C3596   1.416       .  A
C3595      C3600   1.408       .  A
C3596      C3597   1.405       .  A
C3597      C3598   1.405       .  A
C3597     Br3604   1.911       .  S
C3598      H3603   1.081       .  S
C3598      C3599   1.415       .  A
C3599      C3600   1.403       .  A
C3600     Br3601   1.915       .  S
C3605      H3612   1.084       .  S
C3605      C3606   1.400       .  A
C3605      C3610   1.392       .  A
C3606      C3607   1.414       .  A
C3607      C3608   1.394       .  A
C3607     Br3614   1.921       .  S
C3608      H3613   1.084       .  S
C3608      C3609   1.397       .  A
C3609      C3610   1.401       .  A
C3610     Br3611   1.915       .  S
C3615      H3622   1.081       .  S
C3615      C3616   1.402       .  A
C3615      C3620   1.391       .  A
C3616      C3617   1.407       .  A
C3617      C3618   1.393       .  A
C3617     Br3624   1.919       .  S
C3618      H3623   1.084       .  S
C3618      C3619   1.403       .  A
C3619      C3620   1.415       .  A
C3620     Br3621   1.921       .  S
C3625      H3632   1.083       .  S
C3625      C3626   1.417       .  A
C3625      C3630   1.412       .  A
C3626      C3627   1.401       .  A
C3627      C3628   1.401       .  A
C3627     Br3634   1.912       .  S
C3628      H3633   1.081       .  S
C3628      C3629   1.418       .  A
C3629      C3630   1.409       .  A
C3630     Br3631   1.915       .  S
C3635      H3642   1.083       .  S
C3635      C3636   1.419       .  A
C3635      C3640   1.408   1_655  A
C3636      C3637   1.409       .  A
C3637      C3638   1.406   1_655  A
C3637     Br3644   1.916       .  S
C3638      H3643   1.084       .  S
C3638      C3639   1.414       .  A
C3639      C3640   1.405       .  A
C3640     Br3641   1.917       .  S
C3645      H3652   1.083       .  S
C3645      C3646   1.405       .  A
C3645      C3650   1.402       .  A
C3646      C3647   1.415       .  A
C3647      C3648   1.382       .  A
C3647     Br3654   1.929       .  S
C3648      H3653   1.082       .  S
C3648      C3649   1.399       .  A
C3649      C3650   1.408       .  A
C3650     Br3651   1.918   1_655  S
C3655      H3662   1.084       .  S
C3655      C3656   1.406       .  A
C3655      C3660   1.404       .  A
C3656      C3657   1.411       .  A
C3657      C3658   1.411       .  A
C3657     Br3664   1.917       .  S
C3658      H3663   1.083       .  S
C3658      C3659   1.408       .  A
C3659      C3660   1.410       .  A
C3660     Br3661   1.919       .  S
C3665      H3672   1.084       .  S
C3665      C3666   1.411       .  A
C3665      C3670   1.408   1_565  A
C3666      C3667   1.404       .  A
C3667      C3668   1.403   1_565  A
C3667     Br3674   1.918       .  S
C3668      H3673   1.083       .  S
C3668      C3669   1.413       .  A
C3669      C3670   1.407       .  A
C3670     Br3671   1.916       .  S
C3675      H3682   1.084       .  S
C3675      C3676   1.414       .  A
C3675      C3680   1.405   1_655  A
C3676      C3677   1.406       .  A
C3677      C3678   1.408   1_655  A
C3677     Br3684   1.917       .  S
C3678      H3683   1.083       .  S
C3678      C3679   1.416       .  A
C3679      C3680   1.409       .  A
C3680     Br3681   1.917       .  S
C3685      H3692   1.083       .  S
C3685      C3686   1.401       .  A
C3685      C3690   1.398   1_565  A
C3686      C3687   1.407       .  A
C3687      C3688   1.393       .  A
C3687     Br3694   1.920       .  S
C3688      H3693   1.082       .  S
C3688      C3689   1.399   1_565  A
C3689      C3690   1.413       .  A
C3690     Br3691   1.922       .  S
C3695      H3702   1.084       .  S
C3695      C3696   1.402   1_655  A
C3695      C3700   1.392       .  A
C3696      C3697   1.410       .  A
C3697      C3698   1.391   1_455  A
C3697     Br3704   1.921       .  S
C3698      H3703   1.083       .  S
C3698      C3699   1.401       .  A
C3699      C3700   1.403       .  A
C3700     Br3701   1.919       .  S
C3705      H3712   1.082       .  S
C3705      C3706   1.402       .  A
C3705      C3710   1.392       .  A
C3706      C3707   1.416       .  A
C3707      C3708   1.392       .  A
C3707     Br3714   1.923       .  S
C3708      H3713   1.084       .  S
C3708      C3709   1.398       .  A
C3709      C3710   1.408       .  A
C3710     Br3711   1.923       .  S
C3715      H3722   1.078       .  S
C3715      C3716   1.423       .  A
C3715      C3720   1.405       .  A
C3716      C3717   1.407       .  A
C3717      C3718   1.407       .  A
C3717     Br3724   1.918       .  S
C3718      H3723   1.082       .  S
C3718      C3719   1.417       .  A
C3719      C3720   1.400       .  A
C3720     Br3721   1.919       .  S
C3725      H3732   1.083       .  S
C3725      C3726   1.397       .  A
C3725      C3730   1.394       .  A
C3726      C3727   1.405       .  A
C3727      C3728   1.392       .  A
C3727     Br3734   1.916       .  S
C3728      H3733   1.083       .  S
C3728      C3729   1.401       .  A
C3729      C3730   1.420       .  A
C3730     Br3731   1.925       .  S
C3735      H3742   1.082       .  S
C3735      C3736   1.414       .  A
C3735      C3740   1.406       .  A
C3736      C3737   1.405       .  A
C3737      C3738   1.411       .  A
C3737     Br3744   1.917       .  S
C3738      H3743   1.083       .  S
C3738      C3739   1.423       .  A
C3739      C3740   1.412       .  A
C3740     Br3741   1.914       .  S
C3745      H3752   1.082       .  S
C3745      C3746   1.421       .  A
C3745      C3750   1.407       .  A
C3746      C3747   1.411       .  A
C3747      C3748   1.410       .  A
C3747     Br3754   1.916       .  S
C3748      H3753   1.082       .  S
C3748      C3749   1.417       .  A
C3749      C3750   1.404       .  A
C3750     Br3751   1.917       .  S
C3755      H3762   1.084       .  S
C3755      C3756   1.412       .  A
C3755      C3760   1.407       .  A
C3756      C3757   1.404       .  A
C3757      C3758   1.404       .  A
C3757     Br3764   1.919       .  S
C3758      H3763   1.083       .  S
C3758      C3759   1.414       .  A
C3759      C3760   1.408       .  A
C3760     Br3761   1.918       .  S
C3765      H3772   1.076       .  S
C3765      C3766   1.421       .  A
C3765      C3770   1.399   1_655  A
C3766      C3767   1.409       .  A
C3767      C3768   1.411   1_655  A
C3767     Br3774   1.916       .  S
C3768      H3773   1.082       .  S
C3768      C3769   1.417       .  A
C3769      C3770   1.401       .  A
C3770     Br3771   1.923       .  S
C3775      H3782   1.083   1_554  S
C3775      C3776   1.420   1_554  A
C3775      C3780   1.410       .  A
C3776      C3777   1.408       .  A
C3777      C3778   1.405   1_556  A
C3777     Br3784   1.917       .  S
C3778      H3783   1.078       .  S
C3778      C3779   1.419       .  A
C3779      C3780   1.409       .  A
C3780     Br3781   1.918       .  S
C3785      H3792   1.083       .  S
C3785      C3786   1.416       .  A
C3785      C3790   1.410       .  A
C3786      C3787   1.407       .  A
C3787      C3788   1.406       .  A
C3787     Br3794   1.918       .  S
C3788      H3793   1.084       .  S
C3788      C3789   1.416       .  A
C3789      C3790   1.405       .  A
C3790     Br3791   1.915       .  S
C3795      H3802   1.079       .  S
C3795      C3796   1.422       .  A
C3795      C3800   1.406       .  A
C3796      C3797   1.406       .  A
C3797      C3798   1.410       .  A
C3797     Br3804   1.918       .  S
C3798      H3803   1.081       .  S
C3798      C3799   1.421       .  A
C3799      C3800   1.403       .  A
C3800     Br3801   1.919       .  S
C3805      H3812   1.083       .  S
C3805      C3806   1.414       .  A
C3805      C3810   1.407       .  A
C3806      C3807   1.405       .  A
C3807      C3808   1.406       .  A
C3807     Br3814   1.917       .  S
C3808      H3813   1.081       .  S
C3808      C3809   1.419       .  A
C3809      C3810   1.408       .  A
C3810     Br3811   1.917       .  S
C3815      H3822   1.084       .  S
C3815      C3816   1.402       .  A
C3815      C3820   1.384       .  A
C3816      C3817   1.405       .  A
C3817      C3818   1.402   1_556  A
C3817     Br3824   1.918   1_556  S
C3818      H3823   1.084       .  S
C3818      C3819   1.406       .  A
C3819      C3820   1.404   1_554  A
C3820     Br3821   1.922       .  S
C3825      H3832   1.083       .  S
C3825      C3826   1.411       .  A
C3825      C3830   1.410   1_455  A
C3826      C3827   1.406       .  A
C3827      C3828   1.402   1_455  A
C3827     Br3834   1.918       .  S
C3828      H3833   1.084       .  S
C3828      C3829   1.408       .  A
C3829      C3830   1.408       .  A
C3830     Br3831   1.916       .  S
C3835      H3842   1.083       .  S
C3835      C3836   1.419       .  A
C3835      C3840   1.409       .  A
C3836      C3837   1.405       .  A
C3837      C3838   1.407       .  A
C3837     Br3844   1.913       .  S
C3838      H3843   1.082       .  S
C3838      C3839   1.421       .  A
C3839      C3840   1.409       .  A
C3840     Br3841   1.915       .  S
C3845      H3852   1.083       .  S
C3845      C3846   1.415       .  A
C3845      C3850   1.410       .  A
C3846      C3847   1.403       .  A
C3847      C3848   1.405       .  A
C3847     Br3854   1.915       .  S
C3848      H3853   1.083       .  S
C3848      C3849   1.416       .  A
C3849      C3850   1.409       .  A
C3850     Br3851   1.916       .  S
C3855      H3862   1.082       .  S
C3855      C3856   1.418       .  A
C3855      C3860   1.404       .  A
C3856      C3857   1.410       .  A
C3857      C3858   1.412       .  A
C3857     Br3864   1.915       .  S
C3858      H3863   1.083       .  S
C3858      C3859   1.419       .  A
C3859      C3860   1.405       .  A
C3860     Br3861   1.910       .  S
C3865      H3872   1.084       .  S
C3865      C3866   1.401       .  A
C3865      C3870   1.390   1_655  A
C3866      C3867   1.405       .  A
C3867      C3868   1.393       .  A
C3867     Br3874   1.919       .  S
C3868      H3873   1.084       .  S
C3868      C3869   1.401   1_655  A
C3869      C3870   1.411       .  A
C3870     Br3871   1.922       .  S
C3875      H3882   1.082   1_554  S
C3875      C3876   1.417   1_554  A
C3875      C3880   1.409       .  A
C3876      C3877   1.405       .  A
C3877      C3878   1.412   1_556  A
C3877     Br3884   1.910       .  S
C3878      H3883   1.083       .  S
C3878      C3879   1.421       .  A
C3879      C3880   1.412       .  A
C3880     Br3881   1.915       .  S
C3885      H3892   1.083       .  S
C3885      C3886   1.399       .  A
C3885      C3890   1.396   1_654  A
C3886      C3887   1.408   1_554  A
C3887      C3888   1.393       .  A
C3887     Br3894   1.920       .  S
C3888      H3893   1.083       .  S
C3888      C3889   1.402   1_655  A
C3889      C3890   1.419       .  A
C3890     Br3891   1.923   1_556  S
C3895      H3902   1.082       .  S
C3895      C3896   1.423       .  A
C3895      C3900   1.405       .  A
C3896      C3897   1.405       .  A
C3897      C3898   1.408       .  A
C3897     Br3904   1.916       .  S
C3898      H3903   1.082       .  S
C3898      C3899   1.423       .  A
C3899      C3900   1.404       .  A
C3900     Br3901   1.915       .  S
C3905      H3912   1.083       .  S
C3905      C3906   1.403       .  A
C3905      C3910   1.395       .  A
C3906      C3907   1.410       .  A
C3907      C3908   1.393       .  A
C3907     Br3914   1.913       .  S
C3908      H3913   1.084       .  S
C3908      C3909   1.401       .  A
C3909      C3910   1.413       .  A
C3910     Br3911   1.919       .  S
C3915      H3922   1.083       .  S
C3915      C3916   1.415       .  A
C3915      C3920   1.410       .  A
C3916      C3917   1.402       .  A
C3917      C3918   1.403       .  A
C3917     Br3924   1.918       .  S
C3918      H3923   1.083       .  S
C3918      C3919   1.416       .  A
C3919      C3920   1.408       .  A
C3920     Br3921   1.916       .  S
C3925      H3932   1.083   1_554  S
C3925      C3926   1.415   1_554  A
C3925      C3930   1.408       .  A
C3926      C3927   1.402       .  A
C3927      C3928   1.403   1_556  A
C3927     Br3934   1.919       .  S
C3928      H3933   1.082       .  S
C3928      C3929   1.419       .  A
C3929      C3930   1.408       .  A
C3930     Br3931   1.916       .  S
C3935      H3942   1.083       .  S
C3935      C3936   1.405       .  A
C3935      C3940   1.393       .  A
C3936      C3937   1.408       .  A
C3937      C3938   1.391   1_556  A
C3937     Br3944   1.921       .  S
C3938      H3943   1.083       .  S
C3938      C3939   1.405       .  A
C3939      C3940   1.408   1_554  A
C3940     Br3941   1.918       .  S
C3945      H3952   1.084       .  S
C3945      C3946   1.415       .  A
C3945      C3950   1.408       .  A
C3946      C3947   1.404       .  A
C3947      C3948   1.405       .  A
C3947     Br3954   1.918       .  S
C3948      H3953   1.083       .  S
C3948      C3949   1.417       .  A
C3949      C3950   1.406       .  A
C3950     Br3951   1.916       .  S
C3955      H3962   1.076       .  S
C3955      C3956   1.420       .  A
C3955      C3960   1.396   1_455  A
C3956      C3957   1.406       .  A
C3957      C3958   1.408   1_455  A
C3957     Br3964   1.918       .  S
C3958      H3963   1.083       .  S
C3958      C3959   1.420       .  A
C3959      C3960   1.401       .  A
C3960     Br3961   1.919       .  S
C3965      H3972   1.080       .  S
C3965      C3966   1.416       .  A
C3965      C3970   1.396   1_556  A
C3966      C3967   1.406       .  A
C3967      C3968   1.411   1_556  A
C3967     Br3974   1.916       .  S
C3968      H3973   1.083       .  S
C3968      C3969   1.416       .  A
C3969      C3970   1.398       .  A
C3970     Br3971   1.920       .  S
C3975      H3982   1.083   1_554  S
C3975      C3976   1.402   1_554  A
C3975      C3980   1.394       .  A
C3976      C3977   1.402       .  A
C3977      C3978   1.390   1_556  A
C3977     Br3984   1.911       .  S
C3978      H3983   1.083       .  S
C3978      C3979   1.400       .  A
C3979      C3980   1.411       .  A
C3980     Br3981   1.919       .  S
C3985      H3992   1.083       .  S
C3985      C3986   1.401       .  A
C3985      C3990   1.400   1_655  A
C3986      C3987   1.403       .  A
C3987      C3988   1.392       .  A
C3987     Br3994   1.913       .  S
C3988      H3993   1.083       .  S
C3988      C3989   1.402   1_655  A
C3989      C3990   1.419       .  A
C3990     Br3991   1.923       .  S
C3995      H4002   1.084       .  S
C3995      C3996   1.401       .  A
C3995      C4000   1.386       .  A
C3996      C3997   1.402       .  A
C3997      C3998   1.394       .  A
C3997     Br4004   1.912       .  S
C3998      H4003   1.084       .  S
C3998      C3999   1.400       .  A
C3999      C4000   1.403       .  A
C4000     Br4001   1.921       .  S
C4005      H4012   1.081       .  S
C4005      C4006   1.420       .  A
C4005      C4010   1.407       .  A
C4006      C4007   1.403       .  A
C4007      C4008   1.406       .  A
C4007     Br4014   1.919       .  S
C4008      H4013   1.080       .  S
C4008      C4009   1.422       .  A
C4009      C4010   1.405       .  A
C4010     Br4011   1.918       .  S
C4015      H4022   1.079       .  S
C4015      C4016   1.422       .  A
C4015      C4020   1.407       .  A
C4016      C4017   1.409       .  A
C4017      C4018   1.406       .  A
C4017     Br4024   1.918       .  S
C4018      H4023   1.083       .  S
C4018      C4019   1.415       .  A
C4019      C4020   1.403       .  A
C4020     Br4021   1.919       .  S
C4025      H4032   1.083       .  S
C4025      C4026   1.419       .  A
C4025      C4030   1.408       .  A
C4026      C4027   1.411       .  A
C4027      C4028   1.408       .  A
C4027     Br4034   1.917       .  S
C4028      H4033   1.083       .  S
C4028      C4029   1.415       .  A
C4029      C4030   1.403       .  A
C4030     Br4031   1.916       .  S
C4035      H4042   1.081       .  S
C4035      C4036   1.406       .  A
C4035      C4040   1.395       .  A
C4036      C4037   1.408       .  A
C4037      C4038   1.386       .  A
C4037     Br4044   1.921       .  S
C4038      H4043   1.080       .  S
C4038      C4039   1.402       .  A
C4039      C4040   1.412       .  A
C4040     Br4041   1.917       .  S
C4045      H4052   1.083       .  S
C4045      C4046   1.399       .  A
C4045      C4050   1.407       .  A
C4046      C4047   1.432       .  A
C4047      C4048   1.403       .  A
C4047     Br4054   1.922       .  S
C4048      H4053   1.084       .  S
C4048      C4049   1.392       .  A
C4049      C4050   1.425       .  A
C4050     Br4051   1.923       .  S
C4055      H4062   1.084       .  S
C4055      C4056   1.399       .  A
C4055      C4060   1.389       .  A
C4056      C4057   1.402       .  A
C4057      C4058   1.392       .  A
C4057     Br4064   1.917       .  S
C4058      H4063   1.084       .  S
C4058      C4059   1.398       .  A
C4059      C4060   1.408       .  A
C4060     Br4061   1.923       .  S
C4065      H4072   1.081       .  S
C4065      C4066   1.420       .  A
C4065      C4070   1.398   1_655  A
C4066      C4067   1.405       .  A
C4067      C4068   1.407   1_655  A
C4067     Br4074   1.916       .  S
C4068      H4073   1.083       .  S
C4068      C4069   1.416       .  A
C4069      C4070   1.399       .  A
C4070     Br4071   1.920       .  S
C4075      H4082   1.080       .  S
C4075      C4076   1.402       .  A
C4075      C4080   1.394       .  A
C4076      C4077   1.412       .  A
C4077      C4078   1.397   1_655  A
C4077     Br4084   1.921       .  S
C4078      H4083   1.083       .  S
C4078      C4079   1.403       .  A
C4079      C4080   1.404   1_455  A
C4080     Br4081   1.920       .  S
C4085      H4092   1.079       .  S
C4085      C4086   1.399       .  A
C4085      C4090   1.391       .  A
C4086      C4087   1.416       .  A
C4087      C4088   1.396       .  A
C4087     Br4094   1.922       .  S
C4088      H4093   1.082       .  S
C4088      C4089   1.401       .  A
C4089      C4090   1.409       .  A
C4090     Br4091   1.915       .  S
C4095      H4102   1.083       .  S
C4095      C4096   1.414       .  A
C4095      C4100   1.412       .  A
C4096      C4097   1.401       .  A
C4097      C4098   1.399       .  A
C4097     Br4104   1.919       .  S
C4098      H4103   1.083       .  S
C4098      C4099   1.414       .  A
C4099      C4100   1.408       .  A
C4100     Br4101   1.916       .  S
C4105      H4112   1.080       .  S
C4105      C4106   1.419       .  A
C4105      C4110   1.405       .  A
C4106      C4107   1.404       .  A
C4107      C4108   1.403       .  A
C4107     Br4114   1.920       .  S
C4108      H4113   1.080       .  S
C4108      C4109   1.419       .  A
C4109      C4110   1.404       .  A
C4110     Br4111   1.918       .  S
C4115      H4122   1.081       .  S
C4115      C4116   1.419       .  A
C4115      C4120   1.401       .  A
C4116      C4117   1.407       .  A
C4117      C4118   1.409       .  A
C4117     Br4124   1.916       .  S
C4118      H4123   1.083       .  S
C4118      C4119   1.421       .  A
C4119      C4120   1.405       .  A
C4120     Br4121   1.914       .  S
C4125      H4132   1.084       .  S
C4125      C4126   1.397       .  A
C4125      C4130   1.405   1_565  A
C4126      C4127   1.420       .  A
C4127      C4128   1.407   1_565  A
C4127     Br4134   1.920       .  S
C4128      H4133   1.083       .  S
C4128      C4129   1.400       .  A
C4129      C4130   1.423       .  A
C4130     Br4131   1.922       .  S
C4135      H4142   1.083   1_554  S
C4135      C4136   1.415   1_554  A
C4135      C4140   1.408       .  A
C4136      C4137   1.402       .  A
C4137      C4138   1.404   1_556  A
C4137     Br4144   1.919       .  S
C4138      H4143   1.082       .  S
C4138      C4139   1.420       .  A
C4139      C4140   1.411       .  A
C4140     Br4141   1.916       .  S
C4145      H4152   1.083       .  S
C4145      C4146   1.417       .  A
C4145      C4150   1.411       .  A
C4146      C4147   1.400       .  A
C4147      C4148   1.400       .  A
C4147     Br4154   1.909       .  S
C4148      H4153   1.080       .  S
C4148      C4149   1.417       .  A
C4149      C4150   1.406       .  A
C4150     Br4151   1.914       .  S
C4155      H4162   1.083       .  S
C4155      C4156   1.417       .  A
C4155      C4160   1.398       .  A
C4156      C4157   1.404       .  A
C4157      C4158   1.410       .  A
C4157     Br4164   1.916       .  S
C4158      H4163   1.084       .  S
C4158      C4159   1.416       .  A
C4159      C4160   1.400       .  A
C4160     Br4161   1.919       .  S
C4165      H4172   1.084       .  S
C4165      C4166   1.416       .  A
C4165      C4170   1.404       .  A
C4166      C4167   1.408       .  A
C4167      C4168   1.408       .  A
C4167     Br4174   1.917       .  S
C4168      H4173   1.084       .  S
C4168      C4169   1.414       .  A
C4169      C4170   1.402       .  A
C4170     Br4171   1.918       .  S
C4175      H4182   1.082       .  S
C4175      C4176   1.403       .  A
C4175      C4180   1.390   1_554  A
C4176      C4177   1.405   1_554  A
C4177      C4178   1.389       .  A
C4177     Br4184   1.921       .  S
C4178      H4183   1.080       .  S
C4178      C4179   1.404       .  A
C4179      C4180   1.412       .  A
C4180     Br4181   1.924       .  S
C4185      H4192   1.083       .  S
C4185      C4186   1.416       .  A
C4185      C4190   1.403   1_545  A
C4186      C4187   1.404       .  A
C4187      C4188   1.405   1_545  A
C4187     Br4194   1.915       .  S
C4188      H4193   1.084       .  S
C4188      C4189   1.413       .  A
C4189      C4190   1.404       .  A
C4190     Br4191   1.919       .  S
C4195      H4202   1.084       .  S
C4195      C4196   1.412       .  A
C4195      C4200   1.404       .  A
C4196      C4197   1.404       .  A
C4197      C4198   1.404       .  A
C4197     Br4204   1.920       .  S
C4198      H4203   1.083       .  S
C4198      C4199   1.417       .  A
C4199      C4200   1.405       .  A
C4200     Br4201   1.915       .  S
C4205      H4212   1.083       .  S
C4205      C4206   1.413       .  A
C4205      C4210   1.409       .  A
C4206      C4207   1.402       .  A
C4207      C4208   1.404       .  A
C4207     Br4214   1.920       .  S
C4208      H4213   1.082       .  S
C4208      C4209   1.417       .  A
C4209      C4210   1.407       .  A
C4210     Br4211   1.916       .  S
C4215      H4222   1.084       .  S
C4215      C4216   1.415       .  A
C4215      C4220   1.410       .  A
C4216      C4217   1.404       .  A
C4217      C4218   1.405       .  A
C4217     Br4224   1.919       .  S
C4218      H4223   1.083       .  S
C4218      C4219   1.416       .  A
C4219      C4220   1.408       .  A
C4220     Br4221   1.916       .  S
C4225      H4232   1.083       .  S
C4225      C4226   1.403   1_565  A
C4225      C4230   1.393       .  A
C4226      C4227   1.414       .  A
C4227      C4228   1.395   1_545  A
C4227     Br4234   1.921       .  S
C4228      H4233   1.083       .  S
C4228      C4229   1.400       .  A
C4229      C4230   1.404       .  A
C4230     Br4231   1.918       .  S
C4235      H4242   1.083       .  S
C4235      C4236   1.422       .  A
C4235      C4240   1.407   1_556  A
C4236      C4237   1.405       .  A
C4237      C4238   1.401   1_556  A
C4237     Br4244   1.916       .  S
C4238      H4243   1.080       .  S
C4238      C4239   1.418       .  A
C4239      C4240   1.404       .  A
C4240     Br4241   1.919       .  S
C4245      H4252   1.084       .  S
C4245      C4246   1.398       .  A
C4245      C4250   1.393   1_546  A
C4246      C4247   1.409   1_545  A
C4247      C4248   1.387       .  A
C4247     Br4254   1.924       .  S
C4248      H4253   1.084       .  S
C4248      C4249   1.395   1_556  A
C4249      C4250   1.402       .  A
C4250     Br4251   1.919       .  S
C4255      H4262   1.083       .  S
C4255      C4256   1.415       .  A
C4255      C4260   1.409       .  A
C4256      C4257   1.400       .  A
C4257      C4258   1.397       .  A
C4257     Br4264   1.920       .  S
C4258      H4263   1.083       .  S
C4258      C4259   1.416       .  A
C4259      C4260   1.405       .  A
C4260     Br4261   1.916       .  S
C4265      H4272   1.082       .  S
C4265      C4266   1.402       .  A
C4265      C4270   1.393       .  A
C4266      C4267   1.410       .  A
C4267      C4268   1.391       .  A
C4267     Br4274   1.917       .  S
C4268      H4273   1.082       .  S
C4268      C4269   1.402       .  A
C4269      C4270   1.416       .  A
C4270     Br4271   1.923       .  S
C4275      H4282   1.084       .  S
C4275      C4276   1.417       .  A
C4275      C4280   1.410       .  A
C4276      C4277   1.404       .  A
C4277      C4278   1.405       .  A
C4277     Br4284   1.917       .  S
C4278      H4283   1.083       .  S
C4278      C4279   1.417       .  A
C4279      C4280   1.407       .  A
C4280     Br4281   1.916       .  S
C4285      H4292   1.084   1_554  S
C4285      C4286   1.411   1_554  A
C4285      C4290   1.406       .  A
C4286      C4287   1.411       .  A
C4287      C4288   1.413   1_556  A
C4287     Br4294   1.917       .  S
C4288      H4293   1.083       .  S
C4288      C4289   1.414       .  A
C4289      C4290   1.405       .  A
C4290     Br4291   1.909       .  S
C4295      H4302   1.084       .  S
C4295      C4296   1.398       .  A
C4295      C4300   1.386   1_556  A
C4296      C4297   1.401       .  A
C4297      C4298   1.392   1_556  A
C4297     Br4304   1.917       .  S
C4298      H4303   1.084       .  S
C4298      C4299   1.402       .  A
C4299      C4300   1.412       .  A
C4300     Br4301   1.923       .  S
C4305      H4312   1.084       .  S
C4305      C4306   1.411       .  A
C4305      C4310   1.399       .  A
C4306      C4307   1.403       .  A
C4307      C4308   1.404       .  A
C4307     Br4314   1.915       .  S
C4308      H4313   1.084       .  S
C4308      C4309   1.409       .  A
C4309      C4310   1.404       .  A
C4310     Br4311   1.920       .  S
C4315      H4322   1.084       .  S
C4315      C4316   1.400       .  A
C4315      C4320   1.400   1_565  A
C4316      C4317   1.413       .  A
C4317      C4318   1.408   1_565  A
C4317     Br4324   1.916       .  S
C4318      H4323   1.083       .  S
C4318      C4319   1.402       .  A
C4319      C4320   1.417       .  A
C4320     Br4321   1.922       .  S
C4325      H4332   1.083       .  S
C4325      C4326   1.415       .  A
C4325      C4330   1.404   1_556  A
C4326      C4327   1.401       .  A
C4327      C4328   1.404   1_556  A
C4327     Br4334   1.920       .  S
C4328      H4333   1.081       .  S
C4328      C4329   1.424       .  A
C4329      C4330   1.406       .  A
C4330     Br4331   1.914       .  S
C4335      H4342   1.078       .  S
C4335      C4336   1.397       .  A
C4335      C4340   1.390       .  A
C4336      C4337   1.407       .  A
C4337      C4338   1.392   1_556  A
C4337     Br4344   1.921       .  S
C4338      H4343   1.083       .  S
C4338      C4339   1.404       .  A
C4339      C4340   1.406   1_554  A
C4340     Br4341   1.921   1_556  S
C4345      H4352   1.083       .  S
C4345      C4346   1.402       .  A
C4345      C4350   1.392       .  A
C4346      C4347   1.413       .  A
C4347      C4348   1.396   1_565  A
C4347     Br4354   1.922       .  S
C4348      H4353   1.083       .  S
C4348      C4349   1.402       .  A
C4349      C4350   1.405   1_545  A
C4350     Br4351   1.917       .  S
C4355      H4362   1.082       .  S
C4355      C4356   1.406       .  A
C4355      C4360   1.400       .  A
C4356      C4357   1.410       .  A
C4357      C4358   1.383       .  A
C4357     Br4364   1.907       .  S
C4358      H4363   1.081       .  S
C4358      C4359   1.395       .  A
C4359      C4360   1.412       .  A
C4360     Br4361   1.920       .  S
C4365      H4372   1.083       .  S
C4365      C4366   1.411       .  A
C4365      C4370   1.409       .  A
C4366      C4367   1.405       .  A
C4367      C4368   1.400       .  A
C4367     Br4374   1.919       .  S
C4368      H4373   1.084       .  S
C4368      C4369   1.411       .  A
C4369      C4370   1.405       .  A
C4370     Br4371   1.915       .  S
C4375      H4382   1.083       .  S
C4375      C4376   1.415       .  A
C4375      C4380   1.407       .  A
C4376      C4377   1.403       .  A
C4377      C4378   1.402       .  A
C4377     Br4384   1.919       .  S
C4378      H4383   1.081       .  S
C4378      C4379   1.420       .  A
C4379      C4380   1.408       .  A
C4380     Br4381   1.914       .  S
C4385      H4392   1.084       .  S
C4385      C4386   1.412       .  A
C4385      C4390   1.406       .  A
C4386      C4387   1.403       .  A
C4387      C4388   1.406       .  A
C4387     Br4394   1.919       .  S
C4388      H4393   1.083       .  S
C4388      C4389   1.418       .  A
C4389      C4390   1.407       .  A
C4390     Br4391   1.915       .  S
C4395      H4402   1.082       .  S
C4395      C4396   1.423       .  A
C4395      C4400   1.405       .  A
C4396      C4397   1.408       .  A
C4397      C4398   1.407       .  A
C4397     Br4404   1.914       .  S
C4398      H4403   1.081       .  S
C4398      C4399   1.417       .  A
C4399      C4400   1.403       .  A
C4400     Br4401   1.918       .  S
C4405      H4412   1.083       .  S
C4405      C4406   1.401       .  A
C4405      C4410   1.396       .  A
C4406      C4407   1.403       .  A
C4407      C4408   1.394       .  A
C4407     Br4414   1.913       .  S
C4408      H4413   1.083       .  S
C4408      C4409   1.400       .  A
C4409      C4410   1.412       .  A
C4410     Br4411   1.920       .  S
C4415      H4422   1.081       .  S
C4415      C4416   1.406       .  A
C4415      C4420   1.394       .  A
C4416      C4417   1.409       .  A
C4417      C4418   1.390       .  A
C4417     Br4424   1.914       .  S
C4418      H4423   1.084       .  S
C4418      C4419   1.402       .  A
C4419      C4420   1.410       .  A
C4420     Br4421   1.918       .  S
C4425      H4432   1.083       .  S
C4425      C4426   1.416       .  A
C4425      C4430   1.407   1_545  A
C4426      C4427   1.411       .  A
C4427      C4428   1.416   1_545  A
C4427     Br4434   1.916       .  S
C4428      H4433   1.083       .  S
C4428      C4429   1.417       .  A
C4429      C4430   1.406       .  A
C4430     Br4431   1.918       .  S
C4435      H4442   1.083       .  S
C4435      C4436   1.403       .  A
C4435      C4440   1.393       .  A
C4436      C4437   1.403       .  A
C4437      C4438   1.387       .  A
C4437     Br4444   1.913       .  S
C4438      H4443   1.082       .  S
C4438      C4439   1.400   1_565  A
C4439      C4440   1.411   1_545  A
C4440     Br4441   1.923   1_565  S
C4445      H4452   1.079       .  S
C4445      C4446   1.400       .  A
C4445      C4450   1.394       .  A
C4446      C4447   1.410       .  A
C4447      C4448   1.394       .  A
C4447     Br4454   1.920       .  S
C4448      H4453   1.083       .  S
C4448      C4449   1.402       .  A
C4449      C4450   1.405       .  A
C4450     Br4451   1.920       .  S
C4455      H4462   1.084       .  S
C4455      C4456   1.414       .  A
C4455      C4460   1.403       .  A
C4456      C4457   1.407       .  A
C4457      C4458   1.410       .  A
C4457     Br4464   1.916       .  S
C4458      H4463   1.084       .  S
C4458      C4459   1.414       .  A
C4459      C4460   1.404       .  A
C4460     Br4461   1.919       .  S
