geometry optimzed in LAMMPS
_audit_creation_date              2020-12-01 
_audit_creation_method            'lammps2cif' 
_symmetry_space_group_name_H-M    'P1' 
_symmetry_Int_Tables_number       1 
_symmetry_cell_setting            triclinic 
loop_ 
_symmetry_equiv_pos_as_xyz 
  x,y,z 
_cell_length_a                    66.15887713 
_cell_length_b                    66.18514849821514 
_cell_length_c                    66.2238514753776 
_cell_angle_alpha                 89.92067345944119 
_cell_angle_beta                  89.96653801635917 
_cell_angle_gamma                 89.4802681476133 
loop_ 
_atom_site_label 
_atom_site_type_symbol 
_atom_site_fract_x 
_atom_site_fract_y 
_atom_site_fract_z 
_atom_site_charge 
N1          N  0.34105338  0.87825924  0.73026543    -0.07200
N2          N  0.32965397  0.88821292  0.74311540    -0.59300
N3          N  0.36235580  0.83473149  0.71570832    -0.06900
N4          N  0.36387941  0.81501562  0.71865742    -0.61400
N5          N  0.37306718  0.84447399  0.72914159    -0.06400
N6          N  0.38231467  0.83178216  0.74137716    -0.59300
N7          N  0.33004281  0.86892792  0.71679353    -0.06100
N8          N  0.31058911  0.87219170  0.72040511    -0.61800
C9          C  0.31073060  0.88444785  0.73684344     0.95000
C10         C  0.37658924  0.81349311  0.73463148     0.94800
N11         N  0.37178473  0.84458315  0.65441898    -0.07400
N12         N  0.38014602  0.83072682  0.64242273    -0.59900
N13         N  0.32965168  0.86883438  0.66965280    -0.05500
N14         N  0.30990948  0.87000092  0.66802938    -0.61100
N15         N  0.33866880  0.87897368  0.65511555    -0.07400
N16         N  0.32471070  0.88742655  0.64325358    -0.60100
N17         N  0.36130873  0.83553647  0.66869893    -0.05100
N18         N  0.36210786  0.81578105  0.66666861    -0.61200
Mn19       Mn  0.34537709  0.85162604  0.69268592     1.18400
C20         C  0.37381844  0.81279708  0.65029874     0.97100
C21         C  0.30680897  0.88156150  0.65162364     0.97800
N22         N  0.40627657  0.87646612  0.72987020    -0.07400
N23         N  0.41824444  0.86671527  0.74242088    -0.63700
N24         N  0.38390010  0.92066829  0.71741757    -0.06200
N25         N  0.38165726  0.94022995  0.72107493    -0.64400
N26         N  0.37385295  0.91005255  0.73072445    -0.06900
N27         N  0.36434926  0.92193133  0.74353135    -0.64000
N28         N  0.41675354  0.88688360  0.71675351    -0.05800
N29         N  0.43633807  0.88459834  0.72023630    -0.64700
Mn30       Mn  0.37361294  0.87723265  0.73039227     1.10700
C31         C  0.43693629  0.87175650  0.73621780     0.98300
C32         C  0.36920164  0.94069378  0.73736874     0.98400
N33         N  0.37411528  0.91299753  0.65568543    -0.06900
N34         N  0.36596903  0.92742460  0.64415834    -0.62300
N35         N  0.41629393  0.88804190  0.66993018    -0.06200
N36         N  0.43599661  0.88588141  0.66885472    -0.59000
N37         N  0.40722020  0.87818982  0.65526634    -0.07600
N38         N  0.42109021  0.86894464  0.64388425    -0.61900
N39         N  0.38446024  0.92141948  0.67040304    -0.06500
N40         N  0.38370246  0.94122628  0.66921486    -0.59000
Mn41       Mn  0.37296446  0.87875800  0.65378822     1.20200
Mn42       Mn  0.40075155  0.90469597  0.69353762     1.10100
Cl43       Cl  0.37315442  0.87808268  0.69222166    -0.87000
C44         C  0.37220363  0.94499392  0.65289520     0.95300
C45         C  0.43901747  0.87404346  0.65265204     0.95100
N46         N  0.20277157  0.87180213  0.83579316    -0.07200
N47         N  0.20518694  0.87306346  0.81607390    -0.59300
N48         N  0.21980674  0.84604861  0.87557872    -0.06900
N49         N  0.23326993  0.83260744  0.88181569    -0.61400
N50         N  0.20507404  0.83707003  0.86595355    -0.06400
N51         N  0.20820643  0.81742207  0.86511520    -0.59300
N52         N  0.21732952  0.88127254  0.84525121    -0.06100
N53         N  0.22993738  0.88929614  0.83214991    -0.61800
C54         C  0.22206777  0.88420503  0.81401110     0.95000
C55         C  0.22572510  0.81485621  0.87520813     0.94800
N56         N  0.20898012  0.88573594  0.92281981    -0.07400
N57         N  0.21354762  0.88256910  0.94198316    -0.59900
N58         N  0.22005124  0.91226097  0.88113533    -0.05500
N59         N  0.23285602  0.92551663  0.87369556    -0.61100
N60         N  0.20690331  0.92130276  0.89301152    -0.07400
N61         N  0.21048345  0.94085815  0.89400561    -0.60100
N62         N  0.22208981  0.87655108  0.91101223    -0.05100
N63         N  0.23571640  0.86673356  0.92178794    -0.61200
Mn64       Mn  0.22045807  0.87911663  0.87815583     1.18400
C65         C  0.23016587  0.87051091  0.94105760     0.97100
C66         C  0.22661068  0.94332229  0.88173812     0.97800
N67         N  0.15840307  0.83710339  0.86933766    -0.07400
N68         N  0.15720202  0.81730444  0.86991490    -0.63700
N69         N  0.14224128  0.88106291  0.84901271    -0.06200
N70         N  0.12939922  0.88971006  0.83603913    -0.64400
N71         N  0.15618730  0.87108031  0.83883800    -0.06900
N72         N  0.15320429  0.87235952  0.81931093    -0.64000
N73         N  0.14447066  0.84561908  0.88078890    -0.05800
N74         N  0.13346298  0.83137806  0.88954697    -0.64700
Mn75       Mn  0.18050979  0.85404576  0.85225977     1.10700
C76         C  0.14165972  0.81376896  0.88249373     0.98300
C77         C  0.13655527  0.88390975  0.81752472     0.98400
N78         N  0.16008943  0.92149955  0.89607532    -0.06900
N79         N  0.15864063  0.94131645  0.89623695    -0.62300
N80         N  0.14652619  0.87781388  0.91725644    -0.06200
N81         N  0.13490818  0.86946301  0.93134089    -0.59000
N82         N  0.16193580  0.88674277  0.92597106    -0.07600
N83         N  0.16118087  0.88479895  0.94569296    -0.61900
N84         N  0.14504371  0.91340620  0.88597266    -0.06500
N85         N  0.13303087  0.92795486  0.87890787    -0.59000
Mn86       Mn  0.18441459  0.90407487  0.90984728     1.20200
Mn87       Mn  0.14335618  0.87956549  0.88328683     1.10100
Cl88       Cl  0.18207481  0.87925325  0.88088192    -0.87000
C89         C  0.14177500  0.94528314  0.88557636     0.95300
C90         C  0.14438587  0.87401607  0.94904702     0.95100
N91         N  0.41469508  0.71266409  0.88738554    -0.07200
N92         N  0.43407890  0.71652279  0.88444246    -0.59300
N93         N  0.37256693  0.72714752  0.91149214    -0.06900
N94         N  0.36337569  0.74025270  0.92335385    -0.61400
N95         N  0.38326188  0.71420942  0.92215961    -0.06400
N96         N  0.38175686  0.71836195  0.94163714    -0.59300
N97         N  0.40348071  0.72524899  0.87681615    -0.06100
N98         N  0.41473650  0.73772739  0.86636484    -0.61800
C99         C  0.43378335  0.73211752  0.87108390     0.95000
C100        C  0.36915481  0.73460941  0.94209598     0.94800
N101        N  0.32763990  0.71048235  0.87199152    -0.07400
N102        N  0.30809855  0.71377767  0.87467754    -0.59900
N103        N  0.36881842  0.72315683  0.84565828    -0.05500
N104        N  0.37572420  0.73560979  0.83177548    -0.61100
N105        N  0.35832356  0.70873236  0.83724962    -0.07400
N106        N  0.35760732  0.71106104  0.81748074    -0.60100
N107        N  0.33819844  0.72466664  0.88072123    -0.05100
N108        N  0.32629438  0.73774833  0.88986059    -0.61200
Mn109      Mn  0.37084287  0.72552513  0.87861791     1.18400
C110        C  0.30761374  0.73072027  0.88612298     0.97100
C111        C  0.36871872  0.72777310  0.81428050     0.97800
N112        N  0.38487428  0.66692952  0.92519035    -0.07400
N113        N  0.38517698  0.66573184  0.94505416    -0.63700
N114        N  0.40675656  0.65016394  0.88268202    -0.06200
N115        N  0.42076857  0.63731368  0.87583390    -0.64400
N116        N  0.41570969  0.66559524  0.89137861    -0.06900
N117        N  0.43544991  0.66365838  0.89071357    -0.64000
N118        N  0.37475576  0.65177362  0.91729875    -0.05800
N119        N  0.36790714  0.63999128  0.93198875    -0.64700
Mn120      Mn  0.40003863  0.68988467  0.90692010     1.10700
C121        C  0.37458194  0.64893920  0.94924252     0.98300
C122        C  0.43863544  0.64609573  0.88104268     0.98400
N123        N  0.35923096  0.66219309  0.84030931    -0.06900
N124        N  0.35911925  0.65974989  0.82068564    -0.62300
N125        N  0.33809676  0.64958709  0.88418744    -0.06200
N126        N  0.32434151  0.63775434  0.89279977    -0.59000
N127        N  0.32874089  0.66379343  0.87373996    -0.07600
N128        N  0.30908469  0.66199629  0.87473673    -0.61900
N129        N  0.37028159  0.64818636  0.84931283    -0.06500
N130        N  0.37810464  0.63585103  0.83543691    -0.59000
Mn131      Mn  0.34322179  0.68622266  0.85562158     1.20200
Mn132      Mn  0.37250421  0.64864681  0.88342034     1.10100
Cl133      Cl  0.37173229  0.68722331  0.88120389    -0.87000
C134        C  0.37080566  0.64337461  0.81762721     0.95300
C135        C  0.30628161  0.64584599  0.88656537     0.95100
N136        N  0.33267961  0.04348779  0.89035989    -0.07200
N137        N  0.31335933  0.03908386  0.88805379    -0.59300
N138        N  0.37539229  0.03117431  0.91487198    -0.06900
N139        N  0.38355534  0.01824380  0.92772519    -0.61400
N140        N  0.36415610  0.04447121  0.92449340    -0.06400
N141        N  0.36435729  0.04092027  0.94406294    -0.59300
N142        N  0.34405941  0.03039592  0.88055987    -0.06100
N143        N  0.33285337  0.01704115  0.87118037    -0.61800
C144        C  0.31375565  0.02264825  0.87585478     0.95000
C145        C  0.37663007  0.02461898  0.94589165     0.94800
N146        N  0.41949053  0.04766476  0.87342311    -0.07400
N147        N  0.43925289  0.04554786  0.87550205    -0.59900
N148        N  0.37843067  0.03195230  0.84868834    -0.05500
N149        N  0.37144310  0.01881090  0.83552513    -0.61100
N150        N  0.38791688  0.04655326  0.83934607    -0.07400
N151        N  0.38783600  0.04364379  0.81963492    -0.60100
N152        N  0.41000209  0.03324767  0.88307143    -0.05100
N153        N  0.42303200  0.02104905  0.89206289    -0.61200
Mn154      Mn  0.37699964  0.03106453  0.88183851     1.18400
C155        C  0.44122479  0.02896524  0.88734812     0.97100
C156        C  0.37733673  0.02636497  0.81745904     0.97800
N157        N  0.36174680  0.09107763  0.92595216    -0.07400
N158        N  0.36313893  0.09166599  0.94578047    -0.63700
N159        N  0.33860393  0.10624469  0.88338993    -0.06200
N160        N  0.32439746  0.11878476  0.87639685    -0.64400
N161        N  0.32995969  0.09087949  0.89250539    -0.06900
N162        N  0.31014672  0.09260104  0.89206079    -0.64000
N163        N  0.37172298  0.10607144  0.91759404    -0.05800
N164        N  0.38021600  0.11716850  0.93196781    -0.64700
Mn165      Mn  0.34669653  0.06750491  0.90856686     1.10700
C166        C  0.37461416  0.10794395  0.94953695     0.98300
C167        C  0.30667148  0.10995964  0.88199592     0.98400
N168        N  0.38490566  0.09332728  0.84056128    -0.06900
N169        N  0.38392913  0.09484102  0.82085140    -0.62300
N170        N  0.40689724  0.10836310  0.88351172    -0.06200
N171        N  0.42041816  0.12063213  0.89180275    -0.59000
N172        N  0.41641916  0.09411315  0.87334565    -0.07600
N173        N  0.43601210  0.09620266  0.87434960    -0.61900
N174        N  0.37397234  0.10750813  0.84941967    -0.06500
N175        N  0.36522428  0.11905594  0.83540853    -0.59000
Mn176      Mn  0.40242288  0.07055126  0.85637871     1.20200
Mn177      Mn  0.37275611  0.10829241  0.88350672     1.10100
Cl178      Cl  0.37465993  0.06946689  0.88254676    -0.87000
C179        C  0.37169570  0.11081764  0.81763212     0.95300
C180        C  0.43856668  0.11264130  0.88579193     0.95100
N181        N  0.38252706  0.83126972  0.05298858    -0.07200
N182        N  0.38235291  0.81148816  0.05030631    -0.59300
N183        N  0.40600759  0.87224136  0.03642030    -0.06900
N184        N  0.41894214  0.88005116  0.02354134    -0.61400
N185        N  0.41564839  0.86333153  0.05131461    -0.06400
N186        N  0.43536662  0.86459591  0.04885750    -0.59300
N187        N  0.37236737  0.84042987  0.03856237    -0.06100
N188        N  0.36493137  0.82715969  0.02584817    -0.61800
C189        C  0.37109196  0.80915382  0.03342125     0.95000
C190        C  0.43716075  0.87523128  0.03155224     0.94800
N191        N  0.36475121  0.91792379  0.04582731    -0.07400
N192        N  0.36731031  0.93702127  0.04061808    -0.59900
N193        N  0.33976473  0.87514979  0.03535013    -0.05500
N194        N  0.32669166  0.86698222  0.02279879    -0.61100
N195        N  0.33037654  0.88710856  0.04814409    -0.07400
N196        N  0.31076901  0.88736703  0.04467579    -0.60100
N197        N  0.37414455  0.90595461  0.03304022    -0.05100
N198        N  0.38352553  0.91645889  0.01909149    -0.61200
Mn199      Mn  0.37294873  0.87326576  0.03526029     1.18400
C200        C  0.37925617  0.93578203  0.02399826     0.97100
C201        C  0.30863628  0.87463079  0.02893654     0.97800
N202        N  0.41510272  0.86661161  0.09800012    -0.07400
N203        N  0.43485449  0.86776748  0.09967388    -0.63700
N204        N  0.37199403  0.84489830  0.11335221    -0.06200
N205        N  0.36389335  0.83161299  0.12608962    -0.64400
N206        N  0.38237485  0.83510785  0.09946682    -0.06900
N207        N  0.38171666  0.81557440  0.10225018    -0.64000
N208        N  0.40594478  0.87794402  0.11160906    -0.05800
N209        N  0.41969779  0.88732752  0.12274958    -0.64700
Mn210      Mn  0.39920888  0.84880897  0.07555928     1.10700
C211        C  0.43770465  0.88064984  0.11508800     0.98300
C212        C  0.37027893  0.81331969  0.11877545     0.98400
N213        N  0.32962012  0.89032149  0.09440037    -0.06900
N214        N  0.30979999  0.88934264  0.09502659    -0.62300
N215        N  0.37196486  0.91290699  0.10891085    -0.06200
N216        N  0.37929946  0.92703213  0.12101551    -0.59000
N217        N  0.36313399  0.92151344  0.09325068    -0.07600
N218        N  0.36417198  0.94131152  0.09433080    -0.61900
N219        N  0.33788280  0.88051715  0.10968289    -0.06500
N220        N  0.32343243  0.87270002  0.12115002    -0.59000
Mn221      Mn  0.34675767  0.90472573  0.07045681     1.20200
Mn222      Mn  0.37183476  0.87908671  0.11211543     1.10100
Cl223      Cl  0.37264750  0.87648156  0.07346824    -0.87000
C224        C  0.30597675  0.87839624  0.11168787     0.95300
C225        C  0.37429731  0.94469293  0.11160747     0.95100
N226        N  0.53916523  0.89026543  0.83961014    -0.07200
N227        N  0.53750182  0.89027007  0.81977332    -0.59300
N228        N  0.52202587  0.90969347  0.88275425    -0.06900
N229        N  0.50934153  0.92089876  0.89330367    -0.61400
N230        N  0.53621174  0.92088675  0.87475391    -0.06400
N231        N  0.53331012  0.94010810  0.87943150    -0.59300
N232        N  0.52537214  0.87875873  0.84784003    -0.06100
N233        N  0.51395683  0.87062163  0.83378430    -0.61800
C234        C  0.52182011  0.87782381  0.81634924     0.95000
C235        C  0.51653496  0.93979803  0.89116607     0.94800
N236        N  0.53459362  0.86639997  0.92439372    -0.07400
N237        N  0.53064704  0.86894095  0.94379840    -0.59900
N238        N  0.52435212  0.84362409  0.87997904    -0.05500
N239        N  0.51206654  0.83059543  0.87137108    -0.61100
N240        N  0.53784134  0.83408499  0.89107866    -0.07400
N241        N  0.53512191  0.81440289  0.89024221    -0.60100
N242        N  0.52096606  0.87571873  0.91333337    -0.05100
N243        N  0.50764329  0.88506302  0.92476568    -0.61200
Mn244      Mn  0.52252536  0.87676987  0.88067532     1.18400
C245        C  0.51384621  0.88080679  0.94367839     0.97100
C246        C  0.51911227  0.81239338  0.87777921     0.97800
N247        N  0.58319782  0.92190465  0.87602037    -0.07400
N248        N  0.58469650  0.94159646  0.87742205    -0.63700
N249        N  0.59964512  0.88062715  0.85079862    -0.06200
N250        N  0.61174383  0.87295661  0.83659646    -0.64400
N251        N  0.58530429  0.89148204  0.84209398    -0.06900
N252        N  0.58719787  0.89150275  0.82238395    -0.64000
N253        N  0.59790544  0.91267407  0.88583931    -0.05800
N254        N  0.60977022  0.92637558  0.89436065    -0.64700
Mn255      Mn  0.56098629  0.90657134  0.85791271     1.10700
C256        C  0.60119681  0.94439468  0.88885170     0.98300
C257        C  0.60363203  0.88002375  0.81890851     0.98400
N258        N  0.58423236  0.83524948  0.89431652    -0.06900
N259        N  0.58635754  0.81556178  0.89371090    -0.62300
N260        N  0.59659154  0.87723366  0.91906213    -0.06200
N261        N  0.60739853  0.88579943  0.93356877    -0.59000
N262        N  0.58170834  0.86694567  0.92723219    -0.07600
N263        N  0.58215590  0.86805558  0.94706314    -0.61900
N264        N  0.59911869  0.84434959  0.88485347    -0.06500
N265        N  0.61186372  0.83046465  0.87754715    -0.59000
Mn266      Mn  0.55966055  0.85039071  0.90965728     1.20200
Mn267      Mn  0.59960219  0.87859543  0.88508841     1.10100
Cl268      Cl  0.56084625  0.87800500  0.88328080    -0.87000
C269        C  0.60352443  0.81253396  0.88333262     0.95300
C270        C  0.59816446  0.87981819  0.95097295     0.95100
N271        N  0.87412099  0.34547876  0.65620728    -0.07200
N272        N  0.88194959  0.33149050  0.64402108    -0.59300
N273        N  0.83116198  0.36794441  0.67195592    -0.06900
N274        N  0.81129504  0.36841721  0.67100682    -0.61400
N275        N  0.83920553  0.37774148  0.65664483    -0.06400
N276        N  0.82464742  0.38522677  0.64497467    -0.59300
N277        N  0.86509259  0.33662846  0.67155040    -0.06100
N278        N  0.86638703  0.31684502  0.67012136    -0.61800
C279        C  0.87688307  0.31366947  0.65298718     0.95000
C280        C  0.80729949  0.37919560  0.65418205     0.94800
N281        N  0.84423555  0.38158631  0.73166604    -0.07400
N282        N  0.83224168  0.39079774  0.74461650    -0.59900
N283        N  0.86836705  0.33882048  0.71845275    -0.05500
N284        N  0.87153847  0.31942286  0.72213999    -0.61100
N285        N  0.87867248  0.34994468  0.73114073    -0.07400
N286        N  0.88917435  0.33846928  0.74361477    -0.60100
N287        N  0.83373694  0.37057185  0.71904284    -0.05100
N288        N  0.81424280  0.37188494  0.72332454    -0.61200
Mn289      Mn  0.84916838  0.35305904  0.69528669     1.18400
C290        C  0.81358803  0.38474639  0.73922882     0.97100
C291        C  0.88470479  0.31948057  0.73779804     0.97800
N292        N  0.87179724  0.41365348  0.65378020    -0.07400
N293        N  0.86229778  0.42705518  0.64203449    -0.63700
N294        N  0.91589573  0.39263709  0.66700957    -0.06200
N295        N  0.93553799  0.39239950  0.66462055    -0.64400
N296        N  0.90688558  0.38139885  0.65339350    -0.06900
N297        N  0.92071520  0.37297809  0.64142922    -0.64000
N298        N  0.88218500  0.42329399  0.66763625    -0.05800
N299        N  0.88019387  0.44287839  0.66573885    -0.64700
Mn300      Mn  0.87297276  0.37950793  0.65379847     1.10700
C301        C  0.86786484  0.44527388  0.64985084     0.98300
C302        C  0.93850753  0.38023375  0.64870370     0.98400
N303        N  0.91008171  0.38422964  0.72828943    -0.06900
N304        N  0.92376918  0.37677123  0.74074155    -0.62300
N305        N  0.88436265  0.42560829  0.71404604    -0.06200
N306        N  0.88239169  0.44531190  0.71640074    -0.59000
N307        N  0.87549501  0.41591408  0.72883289    -0.07600
N308        N  0.86708617  0.42878374  0.74156297    -0.61900
N309        N  0.91878075  0.39417410  0.71356304    -0.06500
N310        N  0.93861255  0.39393852  0.71572032    -0.59000
Mn311      Mn  0.87710651  0.38288021  0.73061271     1.20200
Mn312      Mn  0.90056845  0.40919630  0.69043307     1.10100
Cl313      Cl  0.87493342  0.38111730  0.69240539    -0.87000
C314        C  0.94148961  0.38284143  0.73264678     0.95300
C315        C  0.87141001  0.44706221  0.73353403     0.95100
N316        N  0.91725203  0.21264087  0.88959393    -0.07200
N317        N  0.93702706  0.21477918  0.88935645    -0.59300
N318        N  0.87539003  0.23050736  0.91108319    -0.06900
N319        N  0.86687202  0.24439198  0.92250858    -0.61400
N320        N  0.88426756  0.21659191  0.92215330    -0.06400
N321        N  0.88225781  0.22089289  0.94154692    -0.59300
N322        N  0.90841091  0.22660829  0.87851208    -0.06100
N323        N  0.92206456  0.23862017  0.87044729    -0.61800
C324        C  0.93987550  0.23090673  0.87721684     0.95000
C325        C  0.87116256  0.23821346  0.94144159     0.94800
N326        N  0.83113019  0.21668477  0.87043160    -0.07400
N327        N  0.81185661  0.21926328  0.87494979    -0.59900
N328        N  0.87439955  0.22704753  0.84552387    -0.05500
N329        N  0.88358511  0.23858985  0.83224924    -0.61100
N330        N  0.86308964  0.21369144  0.83638106    -0.07400
N331        N  0.86428539  0.21588405  0.81658440    -0.60100
N332        N  0.84218497  0.23043407  0.87931362    -0.05100
N333        N  0.83074283  0.24254893  0.89029783    -0.61200
Mn334      Mn  0.87521252  0.22931157  0.87834873     1.18400
C335        C  0.81190996  0.23539406  0.88744211     0.97100
C336        C  0.87728468  0.23138940  0.81425263     0.97800
N337        N  0.88206202  0.16962886  0.92421460    -0.07400
N338        N  0.88051570  0.16909846  0.94399105    -0.63700
N339        N  0.90540685  0.15201515  0.88195673    -0.06200
N340        N  0.91904802  0.13981305  0.87337459    -0.64400
N341        N  0.91479798  0.16625999  0.89205252    -0.06900
N342        N  0.93449627  0.16410812  0.89073379    -0.64000
N343        N  0.87166537  0.15503167  0.91574622    -0.05800
N344        N  0.86270088  0.14421001  0.93005380    -0.64700
Mn345      Mn  0.89984495  0.19114920  0.90741454     1.10700
C346        C  0.86843124  0.15328689  0.94761394     0.98300
C347        C  0.93719360  0.14764702  0.87916439     0.98400
N348        N  0.86016400  0.16723096  0.83837786    -0.06900
N349        N  0.86037164  0.16498533  0.81871434    -0.62300
N350        N  0.83708201  0.15501687  0.88134214    -0.06200
N351        N  0.82297039  0.14331534  0.88937715    -0.59000
N352        N  0.82838059  0.16984721  0.87119643    -0.07600
N353        N  0.80855075  0.16857449  0.87200561    -0.61900
N354        N  0.87003267  0.15245167  0.84749403    -0.06500
N355        N  0.87724618  0.13968556  0.83368998    -0.59000
Mn356      Mn  0.84528315  0.19191694  0.85377477     1.20200
Mn357      Mn  0.87113092  0.15238960  0.88166169     1.10100
Cl358      Cl  0.87290475  0.19104937  0.88025915    -0.87000
C359        C  0.87097688  0.14786159  0.81577290     0.95300
C360        C  0.80521184  0.15205355  0.88337548     0.95100
N361        N  0.70737861  0.36204664  0.84084327    -0.07200
N362        N  0.71050662  0.36254452  0.82117467    -0.59300
N363        N  0.71892969  0.33927228  0.88481709    -0.06900
N364        N  0.73025870  0.32568898  0.89410585    -0.61400
N365        N  0.70444832  0.33044712  0.87469326    -0.06400
N366        N  0.70560316  0.31065778  0.87673668    -0.59300
N367        N  0.72209682  0.37095668  0.85053429    -0.06100
N368        N  0.73551935  0.37800960  0.83765331    -0.61800
C369        C  0.72803289  0.37270767  0.81940952     0.95000
C370        C  0.72165899  0.30791493  0.88905825     0.94800
N371        N  0.70889907  0.38533175  0.92623501    -0.07400
N372        N  0.71213150  0.38483714  0.94589938    -0.59900
N373        N  0.72430648  0.40490043  0.88240851    -0.05500
N374        N  0.73815653  0.41566876  0.87320139    -0.61100
N375        N  0.71127481  0.41666763  0.89180543    -0.07400
N376        N  0.71616990  0.43582773  0.88937874    -0.60100
N377        N  0.72195856  0.37368098  0.91676825    -0.05100
N378        N  0.73438965  0.36499178  0.92977068    -0.61200
Mn379      Mn  0.72248388  0.37210456  0.88369092     1.18400
C380        C  0.72799431  0.37195692  0.94791731     0.97100
C381        C  0.73288381  0.43491476  0.87756011     0.97800
N382        N  0.65850865  0.33433745  0.87375966    -0.07400
N383        N  0.65649677  0.31475454  0.87542410    -0.63700
N384        N  0.64668922  0.37728960  0.84974368    -0.06200
N385        N  0.63575748  0.38663034  0.83562505    -0.64400
N386        N  0.66074199  0.36612537  0.84099000    -0.06900
N387        N  0.65976035  0.36750206  0.82124771    -0.64000
N388        N  0.64469854  0.34413180  0.88426393    -0.05800
N389        N  0.63288189  0.33081091  0.89357500    -0.64700
Mn390      Mn  0.68264205  0.34803207  0.85721423     1.10700
C391        C  0.64057096  0.31248216  0.88768364     0.98300
C392        C  0.64422844  0.38026520  0.81789862     0.98400
N393        N  0.66373688  0.42069838  0.89322406    -0.06900
N394        N  0.66164116  0.44046663  0.89389287    -0.62300
N395        N  0.64705568  0.37982800  0.91781218    -0.06200
N396        N  0.63468622  0.37296057  0.93200229    -0.59000
N397        N  0.66215287  0.38946853  0.92633675    -0.07600
N398        N  0.66039191  0.38953069  0.94609153    -0.61900
N399        N  0.64828591  0.41230431  0.88401027    -0.06500
N400        N  0.63536870  0.42659852  0.87806055    -0.59000
Mn401      Mn  0.68656508  0.40345842  0.90960489     1.20200
Mn402      Mn  0.64547039  0.37836792  0.88391907     1.10100
Cl403      Cl  0.68416981  0.37558320  0.88360261    -0.87000
C404        C  0.64401168  0.44409941  0.88438491     0.95300
C405        C  0.64329091  0.37927624  0.94956957     0.95100
N406        N  0.03845317  0.39090252  0.83981857    -0.07200
N407        N  0.03583666  0.38832085  0.82018167    -0.59300
N408        N  0.02452566  0.41364699  0.88306662    -0.06900
N409        N  0.01260102  0.42575141  0.89342487    -0.61400
N410        N  0.03828771  0.42392986  0.87331587    -0.06400
N411        N  0.03585731  0.44351773  0.87667066    -0.59300
N412        N  0.02471137  0.38098657  0.84997308    -0.06100
N413        N  0.01261428  0.37126474  0.83772436    -0.61800
C414        C  0.01971719  0.37583564  0.81922021     0.95000
C415        C  0.01983124  0.44429894  0.88944856     0.94800
N416        N  0.03673534  0.37059940  0.92590692    -0.07400
N417        N  0.03389400  0.37378445  0.94541038    -0.59900
N418        N  0.02362257  0.34822359  0.88228275    -0.05500
N419        N  0.01152862  0.33653327  0.87188126    -0.61100
N420        N  0.03673471  0.33743840  0.89261540    -0.07400
N421        N  0.03368645  0.31793327  0.88961641    -0.60100
N422        N  0.02352352  0.38095852  0.91528253    -0.05100
N423        N  0.01152163  0.39154593  0.92709437    -0.61200
Mn424      Mn  0.02359311  0.38095418  0.88262238     1.18400
C425        C  0.01815996  0.38704328  0.94580871     0.97100
C426        C  0.01796941  0.31770456  0.87646839     0.97800
N427        N  0.08519809  0.42297731  0.87313881    -0.07400
N428        N  0.08711599  0.44268891  0.87382859    -0.63700
N429        N  0.09964637  0.38010847  0.84989357    -0.06200
N430        N  0.11142359  0.37121407  0.83617926    -0.64400
N431        N  0.08547710  0.39077407  0.84067000    -0.06900
N432        N  0.08736172  0.38960914  0.82095545    -0.64000
N433        N  0.09956348  0.41377131  0.88354429    -0.05800
N434        N  0.11163235  0.42759126  0.89163822    -0.64700
Mn435      Mn  0.06187213  0.40758097  0.85629734     1.10700
C436        C  0.10354706  0.44561233  0.88532538     0.98300
C437        C  0.10351455  0.37745433  0.81816480     0.98400
N438        N  0.08357973  0.33645882  0.89423028    -0.06900
N439        N  0.08439625  0.31671352  0.89241023    -0.62300
N440        N  0.09841799  0.37848734  0.91831213    -0.06200
N441        N  0.11017435  0.38628883  0.93256569    -0.59000
N442        N  0.08353472  0.36854936  0.92693146    -0.07600
N443        N  0.08480211  0.36929066  0.94672441    -0.61900
N444        N  0.09834943  0.34516454  0.88418950    -0.06500
N445        N  0.10949814  0.33102302  0.87508968    -0.59000
Mn446      Mn  0.06015697  0.35282281  0.91037650     1.20200
Mn447      Mn  0.10032888  0.37937324  0.88406496     1.10100
Cl448      Cl  0.06186512  0.38019612  0.88335879    -0.87000
C449        C  0.10053272  0.31331945  0.88052461     0.95300
C450        C  0.10138192  0.38032925  0.95024848     0.95100
N451        N  0.89005283  0.33659017  0.05071723    -0.07200
N452        N  0.88980505  0.31694595  0.04733646    -0.59300
N453        N  0.91165271  0.38075312  0.03907923    -0.06900
N454        N  0.92482881  0.38924505  0.02688939    -0.61400
N455        N  0.92099493  0.37065354  0.05342750    -0.06400
N456        N  0.94076100  0.37194429  0.05129180    -0.59300
N457        N  0.88074742  0.34642527  0.03617673    -0.06100
N458        N  0.87370130  0.33372896  0.02266887    -0.61800
C459        C  0.87937730  0.31541670  0.02986334     0.95000
C460        C  0.94291782  0.38377777  0.03480115     0.94800
N461        N  0.86453402  0.42167844  0.04962793    -0.07400
N462        N  0.86501884  0.44143946  0.04696887    -0.59900
N463        N  0.84605375  0.37753268  0.03396489    -0.05500
N464        N  0.83567965  0.36729299  0.02057591    -0.61100
N465        N  0.83393605  0.38654594  0.04690079    -0.07400
N466        N  0.81484735  0.38276286  0.04235900    -0.60100
N467        N  0.87643951  0.41249656  0.03663001    -0.05100
N468        N  0.88529688  0.42578835  0.02479907    -0.61200
Mn469      Mn  0.87881064  0.37944413  0.03585632     1.18400
C470        C  0.87814533  0.44379969  0.03150576     0.97100
C471        C  0.81626298  0.37055947  0.02593999     0.97800
N472        N  0.91767797  0.36968891  0.09985398    -0.07400
N473        N  0.93723472  0.37162673  0.10235780    -0.63700
N474        N  0.87525760  0.34456909  0.11131793    -0.06200
N475        N  0.86639471  0.33024726  0.12222260    -0.64400
N476        N  0.88686415  0.33604254  0.09752600    -0.06900
N477        N  0.88637111  0.31622480  0.09879682    -0.64000
N478        N  0.90742806  0.37985763  0.11358783    -0.05800
N479        N  0.92034078  0.38926661  0.12575256    -0.64700
Mn480      Mn  0.90415897  0.35291577  0.07551349     1.10700
C481        C  0.93893778  0.38375957  0.11847798     0.98300
C482        C  0.87364566  0.31260941  0.11419544     0.98400
N483        N  0.83034854  0.38741108  0.09421096    -0.06900
N484        N  0.81053370  0.38636052  0.09543015    -0.62300
N485        N  0.87082127  0.41280555  0.11129380    -0.06200
N486        N  0.87808060  0.42695690  0.12345669    -0.59000
N487        N  0.86098416  0.42143876  0.09623254    -0.07600
N488        N  0.86134344  0.44125420  0.09776490    -0.61900
N489        N  0.83908778  0.37795943  0.10945073    -0.06500
N490        N  0.82498600  0.37011254  0.12134895    -0.59000
Mn491      Mn  0.84695898  0.40455930  0.07173015     1.20200
Mn492      Mn  0.87311365  0.37878350  0.11260918     1.10100
Cl493      Cl  0.87572208  0.37893796  0.07405141    -0.87000
C494        C  0.80721720  0.37553700  0.11231507     0.95300
C495        C  0.87196505  0.44466919  0.11474547     0.95100
N496        N  0.83205572  0.54337216  0.89670903    -0.07200
N497        N  0.81247098  0.53967846  0.89700027    -0.59300
N498        N  0.87742754  0.53048253  0.91548603    -0.06900
N499        N  0.88778536  0.51768037  0.92662212    -0.61400
N500        N  0.86775824  0.54367447  0.92678156    -0.06400
N501        N  0.87124842  0.53990424  0.94613503    -0.59300
N502        N  0.84170792  0.52966194  0.88603889    -0.06100
N503        N  0.82897370  0.51642223  0.87865829    -0.61800
C504        C  0.81079495  0.52288181  0.88550984     0.95000
C505        C  0.88399385  0.52369363  0.94568160     0.94800
N506        N  0.91605584  0.54494548  0.86883047    -0.07400
N507        N  0.93591194  0.54344605  0.86950334    -0.59900
N508        N  0.87128026  0.53031361  0.85036903    -0.05500
N509        N  0.86073762  0.51785392  0.83916985    -0.61100
N510        N  0.87993262  0.54412343  0.83918114    -0.07400
N511        N  0.87567135  0.54119239  0.81991330    -0.60100
N512        N  0.90763542  0.53098850  0.87999870    -0.05100
N513        N  0.92164718  0.51963450  0.88869273    -0.61200
Mn514      Mn  0.87458680  0.52975316  0.88296652     1.18400
C515        C  0.93920625  0.52767723  0.88203612     0.97100
C516        C  0.86349186  0.52482942  0.82022688     0.97800
N517        N  0.86582247  0.59060055  0.92668050    -0.07400
N518        N  0.86783565  0.59196678  0.94632331    -0.63700
N519        N  0.83938800  0.60516983  0.88583624    -0.06200
N520        N  0.82494007  0.61660610  0.87769364    -0.64400
N521        N  0.83118146  0.59058760  0.89657147    -0.06900
N522        N  0.81133005  0.59184497  0.89607534    -0.64000
N523        N  0.87519520  0.60536504  0.91728177    -0.05800
N524        N  0.88399016  0.61717063  0.93096134    -0.64700
Mn525      Mn  0.84879404  0.56717663  0.91209685     1.10700
C526        C  0.87911689  0.60846263  0.94906858     0.98300
C527        C  0.80749582  0.60806779  0.88433311     0.98400
N528        N  0.88029050  0.59093481  0.83915665    -0.06900
N529        N  0.87902917  0.59295903  0.81953833    -0.62300
N530        N  0.90702074  0.60564460  0.87946496    -0.06200
N531        N  0.92144647  0.61741804  0.88670642    -0.59000
N532        N  0.91523099  0.59123573  0.86838562    -0.07600
N533        N  0.93500724  0.59278647  0.86784351    -0.61900
N534        N  0.87125180  0.60597514  0.84863036    -0.06500
N535        N  0.86349188  0.61872727  0.83502048    -0.59000
Mn536      Mn  0.89807953  0.56780132  0.85349254     1.20200
Mn537      Mn  0.87319505  0.60680696  0.88291057     1.10100
Cl538      Cl  0.87363605  0.56804200  0.88288558    -0.87000
C539        C  0.86859338  0.61019708  0.81688595     0.95300
C540        C  0.93883458  0.60909210  0.87924348     0.95100
N541        N  0.83999798  0.87642116  0.23556478    -0.07200
N542        N  0.82808305  0.88742387  0.24706332    -0.59300
N543        N  0.86268330  0.83276428  0.22186335    -0.06900
N544        N  0.86580723  0.81313718  0.22445666    -0.61400
N545        N  0.87255949  0.84302913  0.23553047    -0.06400
N546        N  0.88274113  0.83088521  0.24755902    -0.59300
N547        N  0.82955381  0.86657622  0.22198832    -0.06100
N548        N  0.81004562  0.87055685  0.22410563    -0.61800
C549        C  0.80950101  0.88375851  0.23973534     0.95000
C550        C  0.87853087  0.81232213  0.24051265     0.94800
N551        N  0.87185099  0.84270677  0.16021076    -0.07400
N552        N  0.88012984  0.82905954  0.14794238    -0.59900
N553        N  0.82916402  0.86568468  0.17510831    -0.05500
N554        N  0.80943397  0.86557631  0.17277574    -0.61100
N555        N  0.83801583  0.87605843  0.16063363    -0.07400
N556        N  0.82400270  0.88328038  0.14807065    -0.60100
N557        N  0.86189531  0.83341882  0.17471039    -0.05100
N558        N  0.86305133  0.81370193  0.17263176    -0.61200
Mn559      Mn  0.84540225  0.84914102  0.19846690     1.18400
C560        C  0.87439949  0.81100024  0.15596819     0.97100
C561        C  0.80620592  0.87654320  0.15596230     0.97800
N562        N  0.90533141  0.87476260  0.23564054    -0.07400
N563        N  0.91732144  0.86369182  0.24706179    -0.63700
N564        N  0.88291278  0.91890061  0.22315572    -0.06200
N565        N  0.88058958  0.93850446  0.22642444    -0.64400
N566        N  0.87277177  0.90852442  0.23657594    -0.06900
N567        N  0.86319382  0.92064892  0.24916310    -0.64000
N568        N  0.91573495  0.88475456  0.22212611    -0.05800
N569        N  0.93526080  0.88084423  0.22419900    -0.64700
Mn570      Mn  0.87261577  0.87569303  0.23635873     1.10700
C571        C  0.93592379  0.86750969  0.23975370     0.98300
C572        C  0.86809170  0.93930805  0.24265456     0.98400
N573        N  0.87303706  0.91109853  0.16151161    -0.06900
N574        N  0.86534544  0.92539721  0.14957571    -0.62300
N575        N  0.91552568  0.88686892  0.17530403    -0.06200
N576        N  0.93525690  0.88613147  0.17317528    -0.59000
N577        N  0.90640913  0.87719966  0.16055715    -0.07600
N578        N  0.92021158  0.86951482  0.14805529    -0.61900
N579        N  0.88338020  0.91965255  0.17617147    -0.06500
N580        N  0.88305447  0.93944807  0.17454095    -0.59000
Mn581      Mn  0.87227064  0.87686424  0.15951452     1.20200
Mn582      Mn  0.89979321  0.90294094  0.19922263     1.10100
Cl583      Cl  0.87245922  0.87620029  0.19801511    -0.87000
C584        C  0.87182396  0.94301794  0.15799388     0.95300
C585        C  0.93816765  0.87533164  0.15622579     0.95100
N586        N  0.91502969  0.70852410  0.39229591    -0.07200
N587        N  0.93462855  0.71192221  0.39290751    -0.59300
N588        N  0.87121140  0.72437378  0.41156997    -0.06900
N589        N  0.86255720  0.73856771  0.42257983    -0.61400
N590        N  0.88045910  0.71108493  0.42313389    -0.06400
N591        N  0.87850589  0.71608375  0.44235390    -0.59300
N592        N  0.90585227  0.72175225  0.38062780    -0.06100
N593        N  0.91903934  0.73448533  0.37296808    -0.61800
C594        C  0.93696162  0.72806105  0.38064223     0.95000
C595        C  0.86711480  0.73318495  0.44174904     0.94800
N596        N  0.82998745  0.70754203  0.36795480    -0.07400
N597        N  0.81032524  0.71092358  0.36822166    -0.59900
N598        N  0.87401608  0.71913041  0.34576154    -0.05500
N599        N  0.88304495  0.73075027  0.33241121    -0.61100
N600        N  0.86393827  0.70481373  0.33662282    -0.07400
N601        N  0.86578208  0.70637557  0.31686424    -0.60100
N602        N  0.83965275  0.72209766  0.37716059    -0.05100
N603        N  0.82676995  0.73563521  0.38420484    -0.61200
Mn604      Mn  0.87271335  0.72247953  0.37863447     1.18400
C605        C  0.80857607  0.72840696  0.37857093     0.97100
C606        C  0.87790272  0.72250698  0.31445373     0.97800
N607        N  0.88087005  0.66393153  0.42575369    -0.07400
N608        N  0.87906715  0.66343778  0.44545909    -0.63700
N609        N  0.90666918  0.64704232  0.38521182    -0.06200
N610        N  0.92128473  0.63545876  0.37749579    -0.64400
N611        N  0.91480877  0.66213431  0.39517328    -0.06900
N612        N  0.93460610  0.66123136  0.39453440    -0.64000
N613        N  0.87163024  0.64858139  0.41727048    -0.05800
N614        N  0.86313018  0.63729472  0.43151176    -0.64700
Mn615      Mn  0.89798854  0.68629033  0.40948918     1.10700
C616        C  0.86803622  0.64689090  0.44903606     0.98300
C617        C  0.93865054  0.64464993  0.38356881     0.98400
N618        N  0.86292918  0.65877339  0.33957179    -0.06900
N619        N  0.86407602  0.65647787  0.31999199    -0.62300
N620        N  0.83844172  0.64633988  0.38160137    -0.06200
N621        N  0.82430470  0.63462587  0.38965450    -0.59000
N622        N  0.82972952  0.66060659  0.37069716    -0.07600
N623        N  0.80996904  0.65892421  0.37090368    -0.61900
N624        N  0.87326941  0.64470776  0.34921024    -0.06500
N625        N  0.88195027  0.63239870  0.33578782    -0.59000
Mn626      Mn  0.84630478  0.68288604  0.35353782     1.20200
Mn627      Mn  0.87261377  0.64536052  0.38338407     1.10100
Cl628      Cl  0.87238929  0.68413507  0.38131238    -0.87000
C629        C  0.87582618  0.64008772  0.31758680     0.95300
C630        C  0.80657775  0.64276410  0.38270983     0.95100
N631        N  0.70839179  0.86679558  0.34207533    -0.07200
N632        N  0.70992933  0.86774616  0.32231122    -0.59300
N633        N  0.72337561  0.84577031  0.38544659    -0.06900
N634        N  0.73630787  0.83375821  0.39467271    -0.61400
N635        N  0.70942581  0.83534096  0.37618787    -0.06400
N636        N  0.71275121  0.81577325  0.37865074    -0.59300
N637        N  0.72272472  0.87715061  0.35085647    -0.06100
N638        N  0.73442902  0.88554883  0.33710077    -0.61800
C639        C  0.72610980  0.87958063  0.31938769     0.95000
C640        C  0.72947434  0.81512309  0.39045308     0.94800
N641        N  0.71078233  0.89003635  0.42704403    -0.07400
N642        N  0.71327665  0.88798857  0.44670152    -0.59900
N643        N  0.72456799  0.91101846  0.38316229    -0.05500
N644        N  0.73825795  0.92215574  0.37427400    -0.61100
N645        N  0.71156083  0.92227791  0.39316044    -0.07400
N646        N  0.71639241  0.94161413  0.39138455    -0.60100
N647        N  0.72438454  0.87938840  0.41717608    -0.05100
N648        N  0.73641302  0.86974335  0.42989190    -0.61200
Mn649      Mn  0.72437642  0.87836980  0.38407991     1.18400
C650        C  0.72924457  0.87518751  0.44825885     0.97100
C651        C  0.73303744  0.94119469  0.37931982     0.97800
N652        N  0.66269607  0.83632313  0.37636761    -0.07400
N653        N  0.66101405  0.81667845  0.37763394    -0.63700
N654        N  0.64772324  0.87796321  0.35129970    -0.06200
N655        N  0.63547680  0.88549721  0.33717793    -0.64400
N656        N  0.66205602  0.86710026  0.34263703    -0.06900
N657        N  0.65999803  0.86698227  0.32290245    -0.64000
N658        N  0.64806601  0.84569819  0.38614329    -0.05800
N659        N  0.63597778  0.83204094  0.39449910    -0.64700
Mn660      Mn  0.68561140  0.85106000  0.35910124     1.10700
C661        C  0.64442446  0.81397196  0.38889415     0.98300
C662        C  0.64345926  0.87843394  0.31948362     0.98400
N663        N  0.66387571  0.92315763  0.39437400    -0.06900
N664        N  0.66206219  0.94290928  0.39325025    -0.62300
N665        N  0.64914932  0.88145307  0.41920883    -0.06200
N666        N  0.63756828  0.87313938  0.43328416    -0.59000
N667        N  0.66388196  0.89154600  0.42784764    -0.07600
N668        N  0.66264219  0.89035188  0.44765378    -0.61900
N669        N  0.64896469  0.91412483  0.38486145    -0.06500
N670        N  0.63668608  0.92802848  0.37690087    -0.59000
Mn671      Mn  0.68745092  0.90727146  0.41095154     1.20200
Mn672      Mn  0.64726775  0.87993127  0.38538601     1.10100
Cl673      Cl  0.68603744  0.87925848  0.38484986    -0.87000
C674        C  0.64515001  0.94594002  0.38237208     0.95300
C675        C  0.64622762  0.87890264  0.45099065     0.95100
N676        N  0.03888582  0.89054946  0.33856202    -0.07200
N677        N  0.03742218  0.88891408  0.31876252    -0.59300
N678        N  0.02264833  0.91164438  0.38160442    -0.06900
N679        N  0.00956505  0.92329485  0.39106135    -0.61400
N680        N  0.03652042  0.92243824  0.37263120    -0.06400
N681        N  0.03303322  0.94192627  0.37558972    -0.59300
N682        N  0.02488505  0.87991651  0.34757365    -0.06100
N683        N  0.01358650  0.87066652  0.33415095    -0.61800
C684        C  0.02164921  0.87632448  0.31625843     0.95000
C685        C  0.01621011  0.94211330  0.38730413     0.94800
N686        N  0.03528178  0.86812583  0.42406501    -0.07400
N687        N  0.03183287  0.87053867  0.44356488    -0.59900
N688        N  0.02339620  0.84638171  0.37990796    -0.05500
N689        N  0.01031368  0.83480731  0.37070185    -0.61100
N690        N  0.03624722  0.83557123  0.39057641    -0.07400
N691        N  0.03192294  0.81611749  0.38896854    -0.60100
N692        N  0.02190227  0.87826371  0.41338568    -0.05100
N693        N  0.00917834  0.88795459  0.42525082    -0.61200
Mn694      Mn  0.02269536  0.87899105  0.38052925     1.18400
C695        C  0.01556017  0.88309162  0.44399623     0.97100
C696        C  0.01577293  0.81597531  0.37628612     0.97800
N697        N  0.08324595  0.92232525  0.37412097    -0.07400
N698        N  0.08407404  0.94199868  0.37599338    -0.63700
N699        N  0.09976819  0.88102366  0.34948631    -0.06200
N700        N  0.11252227  0.87404586  0.33549495    -0.64400
N701        N  0.08533748  0.89159961  0.34060324    -0.06900
N702        N  0.08781055  0.89208459  0.32095739    -0.64000
N703        N  0.09775977  0.91322637  0.38437019    -0.05800
N704        N  0.10886272  0.92709931  0.39362461    -0.64700
Mn705      Mn  0.06106642  0.90708549  0.35619972     1.10700
C706        C  0.09996934  0.94499879  0.38812609     0.98300
C707        C  0.10469761  0.88118525  0.31771836     0.98400
N708        N  0.08357251  0.83558997  0.39299491    -0.06900
N709        N  0.08540298  0.81586139  0.39208512    -0.62300
N710        N  0.09723754  0.87738869  0.41776137    -0.06200
N711        N  0.10882087  0.88542426  0.43197486    -0.59000
N712        N  0.08253973  0.86711047  0.42630251    -0.07600
N713        N  0.08391435  0.86777487  0.44616448    -0.61900
N714        N  0.09848472  0.84461020  0.38342747    -0.06500
N715        N  0.11082968  0.83062743  0.37565045    -0.59000
Mn716      Mn  0.05946450  0.85116669  0.40889694     1.20200
Mn717      Mn  0.09957317  0.87897252  0.38373858     1.10100
Cl718      Cl  0.06088196  0.87898016  0.38233085    -0.87000
C719        C  0.10233702  0.81273187  0.38132175     0.95300
C720        C  0.10031653  0.87920991  0.44965597     0.95100
N721        N  0.83256766  0.04998382  0.39207317    -0.07200
N722        N  0.81293973  0.04668807  0.39199063    -0.59300
N723        N  0.87569053  0.03469624  0.41366421    -0.06900
N724        N  0.88250400  0.02017448  0.42561830    -0.61400
N725        N  0.86584839  0.04841914  0.42417480    -0.06400
N726        N  0.86561005  0.04347171  0.44349012    -0.59300
N727        N  0.84220110  0.03620738  0.38142687    -0.06100
N728        N  0.82927243  0.02322934  0.37377843    -0.61800
C729        C  0.81104992  0.03005030  0.38037672     0.95000
C730        C  0.87624455  0.02592658  0.44422774     0.94800
N731        N  0.91825732  0.05102424  0.37001644    -0.07400
N732        N  0.93799448  0.04835212  0.37120435    -0.59900
N733        N  0.87520080  0.03698595  0.34740292    -0.05500
N734        N  0.86726739  0.02396457  0.33467857    -0.61100
N735        N  0.88508846  0.05101823  0.33756227    -0.07400
N736        N  0.88423787  0.04776086  0.31790315    -0.60100
N737        N  0.90872099  0.03675182  0.37989463    -0.05100
N738        N  0.92179792  0.02412406  0.38820236    -0.61200
Mn739      Mn  0.87550636  0.03554487  0.38050812     1.18400
C740        C  0.93997701  0.03161464  0.38274849     0.97100
C741        C  0.87287854  0.03093645  0.31631541     0.97800
N742        N  0.86568659  0.09572936  0.42510170    -0.07400
N743        N  0.86672992  0.09705283  0.44483083    -0.63700
N744        N  0.84085699  0.11157991  0.38385061    -0.06200
N745        N  0.82666894  0.12394932  0.37665608    -0.64400
N746        N  0.83235447  0.09681593  0.39401085    -0.06900
N747        N  0.81259938  0.09880028  0.39415003    -0.64000
N748        N  0.87509828  0.11083315  0.41628789    -0.05800
N749        N  0.88289760  0.12280723  0.43035814    -0.64700
Mn750      Mn  0.84894564  0.07282745  0.40910632     1.10700
C751        C  0.87744325  0.11387066  0.44812490     0.98300
C752        C  0.80911006  0.11568865  0.38336831     0.98400
N753        N  0.88426609  0.09771416  0.33856460    -0.06900
N754        N  0.88180217  0.09855662  0.31894386    -0.62300
N755        N  0.90867090  0.11211416  0.38077483    -0.06200
N756        N  0.92240994  0.12377502  0.38948345    -0.59000
N757        N  0.91780993  0.09800981  0.37005043    -0.07600
N758        N  0.93757830  0.09986334  0.37094214    -0.61900
N759        N  0.87380421  0.11198982  0.34778445    -0.06500
N760        N  0.86376921  0.12289738  0.33403693    -0.59000
Mn761      Mn  0.90171586  0.07454635  0.35374551     1.20200
Mn762      Mn  0.87462846  0.11284066  0.38213537     1.10100
Cl763      Cl  0.87521265  0.07402887  0.38141325    -0.87000
C764        C  0.86910151  0.11421713  0.31603631     0.95300
C765        C  0.94041727  0.11593579  0.38303045     0.95100
N766        N  0.88702741  0.83035269  0.55163779    -0.07200
N767        N  0.88549253  0.81056905  0.54922679    -0.59300
N768        N  0.91097769  0.87256518  0.53711143    -0.06900
N769        N  0.92418278  0.88134344  0.52524357    -0.61400
N770        N  0.92012441  0.86315155  0.55201009    -0.06400
N771        N  0.93992345  0.86515100  0.55052879    -0.59300
N772        N  0.87810815  0.83991117  0.53672637    -0.06100
N773        N  0.87007810  0.82707682  0.52399230    -0.61800
C774        C  0.87464681  0.80883357  0.53194348     0.95000
C775        C  0.94214919  0.87672684  0.53381712     0.94800
N776        N  0.86701107  0.91671046  0.54342677    -0.07400
N777        N  0.86845711  0.93589652  0.53800510    -0.59900
N778        N  0.84556101  0.87233802  0.53238006    -0.05500
N779        N  0.83440928  0.86111464  0.52049174    -0.61100
N780        N  0.83420910  0.88326210  0.54448715    -0.07400
N781        N  0.81487979  0.87980182  0.54093335    -0.60100
N782        N  0.87813798  0.90531402  0.53155918    -0.05100
N783        N  0.88748607  0.91632311  0.51794062    -0.61200
Mn784      Mn  0.87828532  0.87256912  0.53398743     1.18400
C785        C  0.88145614  0.93539170  0.52214448     0.97100
C786        C  0.81531290  0.86579417  0.52598736     0.97800
N787        N  0.91682963  0.86550921  0.59844636    -0.07400
N788        N  0.93648737  0.86632534  0.60098625    -0.63700
N789        N  0.87270328  0.84414428  0.61144090    -0.06200
N790        N  0.86232479  0.83103712  0.62261213    -0.64400
N791        N  0.88378200  0.83409555  0.59822521    -0.06900
N792        N  0.88135607  0.81454688  0.60005205    -0.64000
N793        N  0.90720928  0.87720758  0.61142779    -0.05800
N794        N  0.92067448  0.88641267  0.62311429    -0.64700
Mn795      Mn  0.90228819  0.84786984  0.57522561     1.10700
C796        C  0.93892438  0.87929849  0.61634530     0.98300
C797        C  0.86803319  0.81256370  0.61519979     0.98400
N798        N  0.83082635  0.88864324  0.59124555    -0.06900
N799        N  0.81096520  0.88886958  0.59249179    -0.62300
N800        N  0.87240026  0.91270369  0.60646414    -0.06200
N801        N  0.87866976  0.92748543  0.61845736    -0.59000
N802        N  0.86347635  0.92063933  0.59044719    -0.07600
N803        N  0.86358095  0.94051637  0.59114339    -0.61900
N804        N  0.83897700  0.87987741  0.60720150    -0.06500
N805        N  0.82446175  0.87392683  0.61966886    -0.59000
Mn806      Mn  0.84848718  0.90271032  0.56730857     1.20200
Mn807      Mn  0.87286433  0.87856961  0.61041713     1.10100
Cl808      Cl  0.87548577  0.87556075  0.57209865    -0.87000
C809        C  0.80704348  0.87966312  0.61019149     0.95300
C810        C  0.87307952  0.94478135  0.60857055     0.95100
N811        N  0.13173973  0.09057441  0.47945787    -0.07200
N812        N  0.12306042  0.07715247  0.49121777    -0.59300
N813        N  0.17305517  0.11458163  0.46356629    -0.06900
N814        N  0.19290293  0.11547385  0.46519902    -0.61400
N815        N  0.16424222  0.12389343  0.47870342    -0.06400
N816        N  0.17785959  0.13157660  0.49092974    -0.59300
N817        N  0.14070186  0.08162213  0.46419915    -0.06100
N818        N  0.13858811  0.06185206  0.46526944    -0.61800
C819        C  0.12739357  0.05934857  0.48212463     0.95000
C820        C  0.19564813  0.12632256  0.48223419     0.94800
N821        N  0.15878051  0.12847433  0.40437711    -0.07400
N822        N  0.17213421  0.13848806  0.39311355    -0.59900
N823        N  0.13687429  0.08487811  0.41825533    -0.05500
N824        N  0.13482769  0.06527259  0.41708327    -0.61100
N825        N  0.12501433  0.09434758  0.40533728    -0.07400
N826        N  0.11433975  0.08081474  0.39509539    -0.60100
N827        N  0.16863069  0.11724228  0.41756346    -0.05100
N828        N  0.18819205  0.11911035  0.41568426    -0.61200
Mn829      Mn  0.15511753  0.09930352  0.44069047     1.18400
C830        C  0.19050613  0.13227834  0.40052223     0.97100
C831        C  0.12087203  0.06269233  0.40268888     0.97800
N832        N  0.13044603  0.15629344  0.48356087    -0.07400
N833        N  0.13969134  0.16805270  0.49655542    -0.63700
N834        N  0.08666784  0.13354953  0.47271422    -0.06200
N835        N  0.06757561  0.13150278  0.47827961    -0.64400
N836        N  0.09854725  0.12309686  0.48479891    -0.06900
N837        N  0.08795552  0.11364245  0.49864701    -0.64000
N838        N  0.11876371  0.16697956  0.47150173    -0.05800
N839        N  0.11969426  0.18631656  0.47611938    -0.64700
Mn840      Mn  0.13134326  0.12348057  0.48223427     1.10700
C841        C  0.13295669  0.18673453  0.49164754     0.98300
C842        C  0.06866639  0.11886607  0.49441337     0.98400
N843        N  0.09037327  0.12889923  0.40936490    -0.06900
N844        N  0.07591077  0.12297048  0.39685446    -0.62300
N845        N  0.11405223  0.17043269  0.42460796    -0.06200
N846        N  0.11441984  0.19031575  0.42343403    -0.59000
N847        N  0.12323413  0.16218364  0.40894425    -0.07600
N848        N  0.13010811  0.17653283  0.39681830    -0.61900
N849        N  0.08213170  0.13749326  0.42535785    -0.06500
N850        N  0.06225517  0.13762392  0.42408154    -0.59000
Mn851      Mn  0.12433939  0.12848710  0.40576588     1.20200
Mn852      Mn  0.09993787  0.15245366  0.44860434     1.10100
Cl853      Cl  0.12761337  0.12599752  0.44420911    -0.87000
C854        C  0.05841856  0.12850696  0.40632228     0.95300
C855        C  0.12444817  0.19403123  0.40608754     0.95100
N856        N  0.62754617  0.10044101  0.28274506    -0.07200
N857        N  0.63725048  0.08886549  0.26976109    -0.59300
N858        N  0.58366873  0.12209754  0.29652905    -0.06900
N859        N  0.56405963  0.12435404  0.29321004    -0.61400
N860        N  0.59402749  0.13296557  0.28363021    -0.06400
N861        N  0.58187233  0.14293311  0.27139744    -0.59300
N862        N  0.61749497  0.08942739  0.29576537    -0.06100
N863        N  0.61999439  0.07000214  0.29179098    -0.61800
C864        C  0.63250773  0.06993683  0.27559359     0.95000
C865        C  0.56323442  0.13755461  0.27754326     0.94800
N866        N  0.59108300  0.12861229  0.35856997    -0.07400
N867        N  0.57679794  0.13569831  0.37083609    -0.59900
N868        N  0.61578000  0.08705524  0.34296727    -0.05500
N869        N  0.61653624  0.06724304  0.34458248    -0.61100
N870        N  0.62524063  0.09574010  0.35812516    -0.07400
N871        N  0.63276054  0.08162511  0.37036062    -0.60100
N872        N  0.58262128  0.11891601  0.34345834    -0.05100
N873        N  0.56282995  0.11902966  0.34510183    -0.61200
Mn874      Mn  0.59952373  0.10393984  0.31964848     1.18400
C875        C  0.55924575  0.12947637  0.36214271     0.97100
C876        C  0.62713986  0.06389302  0.36163336     0.97800
N877        N  0.62630060  0.16646362  0.28563555    -0.07400
N878        N  0.61790032  0.17977656  0.27331352    -0.63700
N879        N  0.66938092  0.14330234  0.29921430    -0.06200
N880        N  0.68905665  0.14294827  0.29589613    -0.64400
N881        N  0.65978720  0.13378327  0.28480569    -0.06900
N882        N  0.67264257  0.12647372  0.27146825    -0.64000
N883        N  0.63599532  0.17567758  0.30017492    -0.05800
N884        N  0.63459971  0.19544019  0.29808004    -0.64700
Mn885      Mn  0.62686584  0.13338952  0.28360086     1.10700
C886        C  0.62312165  0.19778315  0.28137415     0.98300
C887        C  0.69083075  0.13217570  0.27863497     0.98400
N888        N  0.65923473  0.13088765  0.36013564    -0.06900
N889        N  0.67324611  0.12293865  0.37226811    -0.62300
N890        N  0.63527273  0.17341122  0.34661260    -0.06200
N891        N  0.63365059  0.19306664  0.34851228    -0.59000
N892        N  0.62469403  0.16395413  0.36049895    -0.07600
N893        N  0.61538097  0.17750883  0.37218185    -0.61900
N894        N  0.66813153  0.14150076  0.34590827    -0.06500
N895        N  0.68782483  0.14111629  0.34790834    -0.59000
Mn896      Mn  0.62505577  0.12977423  0.36053687     1.20200
Mn897      Mn  0.65249357  0.15868698  0.32310845     1.10100
Cl898      Cl  0.62597973  0.13139366  0.32185949    -0.87000
C899        C  0.69103678  0.12958130  0.36427899     0.95300
C900        C  0.62132333  0.19564632  0.36441269     0.95100
N901        N  0.12209882  0.85658779  0.09929909    -0.07200
N902        N  0.13052367  0.86779627  0.08494635    -0.59300
N903        N  0.07983797  0.84216268  0.12304355    -0.06900
N904        N  0.06000931  0.84341338  0.12378457    -0.61400
N905        N  0.08824299  0.85726433  0.13276435    -0.06400
N906        N  0.07386987  0.86914767  0.14045257    -0.59300
N907        N  0.11246381  0.84144691  0.09087142    -0.06100
N908        N  0.11382312  0.84208116  0.07109166    -0.61800
C909        C  0.12505513  0.85849102  0.06741575     0.95000
C910        C  0.05630245  0.86022103  0.13460770     0.94800
N911        N  0.09186560  0.78220746  0.13646997    -0.07400
N912        N  0.07935434  0.76932319  0.14500231    -0.59900
N913        N  0.11438377  0.79437461  0.09275586    -0.05500
N914        N  0.11559220  0.78961642  0.07338046    -0.61100
N915        N  0.12483434  0.78143238  0.10365103    -0.07400
N916        N  0.13355416  0.76777666  0.09209566    -0.60100
N917        N  0.08171176  0.79559822  0.12579781    -0.05100
N918        N  0.06216848  0.79221487  0.12680121    -0.61200
Mn919      Mn  0.09681342  0.81843177  0.10776618     1.18400
C920        C  0.06085528  0.77588768  0.13893046     0.97100
C921        C  0.12782618  0.77305819  0.07325387     0.97800
N922        N  0.12293952  0.85936983  0.16780573    -0.07400
N923        N  0.11503889  0.87194370  0.18144848    -0.63700
N924        N  0.16570591  0.84518124  0.14488277    -0.06200
N925        N  0.18538432  0.84699044  0.14353380    -0.64400
N926        N  0.15631810  0.85895563  0.13391690    -0.06900
N927        N  0.16987318  0.87039925  0.12457994    -0.64000
N928        N  0.13350589  0.84521373  0.17717575    -0.05800
N929        N  0.13323047  0.84781730  0.19680713    -0.64700
Mn930      Mn  0.12229842  0.85931352  0.13342977     1.10700
C931        C  0.12176106  0.86442838  0.19950493     0.98300
C932        C  0.18797180  0.86267697  0.13094309     0.98400
N933        N  0.15830282  0.78415907  0.13598555    -0.06900
N934        N  0.17149163  0.77243430  0.12657003    -0.62300
N935        N  0.13528205  0.79798006  0.17905969    -0.06200
N936        N  0.13547434  0.79424173  0.19868838    -0.59000
N937        N  0.12567109  0.78368250  0.16940383    -0.07600
N938        N  0.11895312  0.77001985  0.18214362    -0.61900
N939        N  0.16764322  0.79866683  0.14560002    -0.06500
N940        N  0.18737767  0.79709977  0.14312708    -0.59000
Mn941      Mn  0.12513667  0.78230261  0.13647016     1.20200
Mn942      Mn  0.15074374  0.82182808  0.16205206     1.10100
Cl943      Cl  0.12364110  0.82072944  0.13501016    -0.87000
C944        C  0.18955983  0.78075350  0.13109925     0.95300
C945        C  0.12500705  0.77681559  0.20037321     0.95100
N946        N  0.08932448  0.62702637  0.36459964    -0.07200
N947        N  0.07509302  0.63607863  0.37564197    -0.59300
N948        N  0.11366160  0.58410166  0.35229756    -0.06900
N949        N  0.11484958  0.56446543  0.35459186    -0.61400
N950        N  0.12374284  0.59364105  0.36644690    -0.06400
N951        N  0.13227538  0.58008006  0.37877136    -0.59300
N952        N  0.08073867  0.61592926  0.35059687    -0.06100
N953        N  0.06097551  0.61693210  0.35180571    -0.61800
C954        C  0.05746273  0.62944046  0.36738329     0.95000
C955        C  0.12638143  0.56188837  0.37104744     0.94800
N956        N  0.12444435  0.59083057  0.29157997    -0.07400
N957        N  0.13283443  0.57761804  0.27923657    -0.59900
N958        N  0.08078184  0.61366350  0.30401862    -0.05500
N959        N  0.06109317  0.61446014  0.30096538    -0.61100
N960        N  0.09047755  0.62297607  0.28949683    -0.07400
N961        N  0.07758896  0.63051687  0.27626437    -0.60100
N962        N  0.11437922  0.58154615  0.30587252    -0.05100
N963        N  0.11553744  0.56178307  0.30352638    -0.61200
Mn964      Mn  0.09711998  0.59856360  0.32829877     1.18400
C965        C  0.12727997  0.55957243  0.28696039     0.97100
C966        C  0.05932401  0.62518197  0.28367790     0.97800
N967        N  0.15730333  0.62905617  0.36427791    -0.07400
N968        N  0.17146851  0.62097988  0.37610431    -0.63700
N969        N  0.13249318  0.67054588  0.34751735    -0.06200
N970        N  0.13107919  0.69033901  0.34824601    -0.64400
N971        N  0.12291728  0.66211410  0.36276354    -0.06900
N972        N  0.11461164  0.67648199  0.37419695    -0.64000
N973        N  0.16591762  0.63886345  0.34928597    -0.05800
N974        N  0.18569202  0.63782196  0.35058003    -0.64700
Mn975      Mn  0.12336828  0.62801474  0.36580152     1.10700
C976        C  0.18912989  0.62673752  0.36727306     0.98300
C977        C  0.11994217  0.69404437  0.36483427     0.98400
N978        N  0.12265994  0.65666421  0.28722584    -0.06900
N979        N  0.11416810  0.66778728  0.27305979    -0.62300
N980        N  0.16629091  0.63617981  0.30245313    -0.06200
N981        N  0.18588285  0.63622643  0.29863971    -0.59000
N982        N  0.15674642  0.62494389  0.28928047    -0.07600
N983        N  0.16961969  0.61703693  0.27624016    -0.61900
N984        N  0.13222258  0.66805119  0.30025642    -0.06500
N985        N  0.13061262  0.68731332  0.29504868    -0.59000
Mn986      Mn  0.12361619  0.62375567  0.28883322     1.20200
Mn987      Mn  0.14951236  0.65381181  0.32499484     1.10100
Cl988      Cl  0.12343486  0.62606425  0.32709351    -0.87000
C989        C  0.11910309  0.68686669  0.27811265     0.95300
C990        C  0.18777217  0.62404613  0.28234361     0.95100
N991        N  0.77988890  0.12471929  0.09197459    -0.07200
N992        N  0.76837228  0.13292010  0.07795522    -0.59300
N993        N  0.79135471  0.08270740  0.11875673    -0.06900
N994        N  0.78784538  0.06328567  0.12212766    -0.61400
N995        N  0.77691437  0.09385460  0.12669335    -0.06400
N996        N  0.76350456  0.08254913  0.13584271    -0.59300
N997        N  0.79426080  0.11370041  0.08376434    -0.06100
N998        N  0.79276543  0.11398771  0.06386341    -0.61800
C999        C  0.77662991  0.12624905  0.06049905     0.95000
C1000       C  0.77041938  0.06355479  0.13301075     0.94800
N1001       N  0.85236345  0.09310910  0.13251139    -0.07400
N1002       N  0.86384398  0.07953582  0.14218921    -0.59900
N1003       N  0.84058223  0.11411400  0.08800593    -0.05500
N1004       N  0.84210040  0.11577181  0.06833202    -0.61100
N1005       N  0.85373401  0.12574038  0.09724896    -0.07400
N1006       N  0.86438335  0.13582189  0.08351622    -0.60100
N1007       N  0.83849911  0.08356490  0.12201881    -0.05100
N1008       N  0.84018634  0.06393247  0.12411584    -0.61200
Mn1009     Mn  0.81637073  0.09801053  0.10288131     1.18400
C1010       C  0.85591905  0.06133433  0.13664889     0.97100
C1011       C  0.85691752  0.12919861  0.06549714     0.97800
N1012       N  0.77393291  0.12829956  0.15737782    -0.07400
N1013       N  0.76048873  0.11952235  0.16902081    -0.63700
N1014       N  0.78866323  0.17026526  0.13415174    -0.06200
N1015       N  0.78370222  0.18961506  0.13301010    -0.64400
N1016       N  0.77627368  0.15945163  0.12319678    -0.06900
N1017       N  0.76276190  0.17109084  0.11425593    -0.64000
N1018       N  0.78664003  0.13884065  0.16821257    -0.05800
N1019       N  0.78201057  0.13768255  0.18755442    -0.64700
Mn1020     Mn  0.77628802  0.12663034  0.12465616     1.10700
C1021       C  0.76574899  0.12543972  0.18777640     0.98300
C1022       C  0.76763681  0.18988008  0.12032681     0.98400
N1023       N  0.85133242  0.16196521  0.13056329    -0.06900
N1024       N  0.86422246  0.17590553  0.12402466    -0.62300
N1025       N  0.83350607  0.13995385  0.17257540    -0.06200
N1026       N  0.83364659  0.13969166  0.19246127    -0.59000
N1027       N  0.84891327  0.12961071  0.16515161    -0.07600
N1028       N  0.85982499  0.12196542  0.18020504    -0.61900
N1029       N  0.83560260  0.17103703  0.13887580    -0.06500
N1030       N  0.83734248  0.19077456  0.13825114    -0.59000
Mn1031     Mn  0.85289005  0.12757751  0.13136908     1.20200
Mn1032     Mn  0.81113768  0.15536475  0.15373852     1.10100
Cl1033     Cl  0.81432913  0.12691739  0.12817972    -0.87000
C1034       C  0.85512476  0.19387096  0.12899896     0.95300
C1035       C  0.85005222  0.12846153  0.19717227     0.95100
N1036       N  0.84638208  0.59511377  0.63048410    -0.07200
N1037       N  0.85800759  0.58072968  0.63851408    -0.59300
N1038       N  0.83046845  0.62095045  0.58964493    -0.06900
N1039       N  0.83219039  0.62208532  0.56997846    -0.61400
N1040       N  0.84532519  0.63033279  0.59882223    -0.06400
N1041       N  0.85754615  0.63829691  0.58501913    -0.59300
N1042       N  0.83208744  0.58672315  0.61956225    -0.06100
N1043       N  0.83362011  0.56694726  0.61982723    -0.61800
C1044       C  0.84974668  0.56323482  0.63158382     0.95000
C1045       C  0.84898909  0.63288147  0.56707948     0.94800
N1046       N  0.76966319  0.62935777  0.60198979    -0.07400
N1047       N  0.75666267  0.63978317  0.59109405    -0.59900
N1048       N  0.78592861  0.58527051  0.62084000    -0.05500
N1049       N  0.78477364  0.56541943  0.62174022    -0.61100
N1050       N  0.77211549  0.59377961  0.63228059    -0.07400
N1051       N  0.76120297  0.57988383  0.64136403    -0.60100
N1052       N  0.78347465  0.62088670  0.59051759    -0.05100
N1053       N  0.77999323  0.62516783  0.57130674    -0.61200
Mn1054     Mn  0.80798672  0.60325241  0.60466600     1.18400
C1055       C  0.76327040  0.63716913  0.57201996     0.97100
C1056       C  0.76936484  0.56227034  0.63469701     0.97800
N1057       N  0.84451174  0.66302329  0.63518931    -0.07400
N1058       N  0.85532579  0.67748787  0.62660474    -0.63700
N1059       N  0.83170982  0.63743040  0.67679954    -0.06200
N1060       N  0.83425001  0.63704995  0.69640954    -0.64400
N1061       N  0.84666477  0.62822655  0.66730834    -0.06900
N1062       N  0.85984404  0.62120523  0.68087438    -0.64000
N1063       N  0.82999811  0.67123753  0.64617344    -0.05800
N1064       N  0.83072144  0.69110102  0.64549748    -0.64700
Mn1065     Mn  0.84703858  0.62911936  0.63298942     1.10700
C1066       C  0.84652073  0.69493369  0.63330378     0.98300
C1067       C  0.85171938  0.62698491  0.69898749     0.98400
N1068       N  0.77166712  0.62468607  0.66717291    -0.06900
N1069       N  0.75952178  0.61453505  0.67906205    -0.62300
N1070       N  0.78333314  0.66951394  0.64666930    -0.06200
N1071       N  0.78098141  0.68917772  0.64443075    -0.59000
N1072       N  0.76959290  0.65969829  0.63644908    -0.07600
N1073       N  0.75763882  0.67244301  0.62677997    -0.61900
N1074       N  0.78497070  0.63475393  0.67773845    -0.06500
N1075       N  0.78201616  0.63179551  0.69726463    -0.59000
Mn1076     Mn  0.77011051  0.62676674  0.63457676     1.20200
Mn1077     Mn  0.80747436  0.65355582  0.66225871     1.10100
Cl1078     Cl  0.80849089  0.62814769  0.63366954    -0.87000
C1079       C  0.76617946  0.61894514  0.69776597     0.95300
C1080       C  0.76496592  0.69072632  0.63189678     0.95100
N1081       N  0.12910394  0.09019912  0.78893846    -0.07200
N1082       N  0.13827741  0.07647354  0.77770317    -0.59300
N1083       N  0.08403019  0.11375002  0.79639755    -0.06900
N1084       N  0.06471292  0.11570082  0.79153741    -0.61400
N1085       N  0.09547959  0.12213482  0.78261232    -0.06400
N1086       N  0.08434142  0.13023468  0.76823748    -0.59300
N1087       N  0.11745851  0.08149176  0.80237507    -0.06100
N1088       N  0.11845811  0.06165811  0.80062235    -0.61800
C1089       C  0.13166509  0.05870748  0.78530296     0.95000
C1090       C  0.06521535  0.12618406  0.77394907     0.94800
N1091       N  0.08787229  0.12793487  0.85820274    -0.07400
N1092       N  0.07310376  0.13646391  0.86890775    -0.59900
N1093       N  0.11290027  0.08542339  0.84827953    -0.05500
N1094       N  0.11380725  0.06584952  0.85098214    -0.61100
N1095       N  0.12228526  0.09510978  0.86282029    -0.07400
N1096       N  0.12985846  0.08172796  0.87592635    -0.60100
N1097       N  0.07997240  0.11719435  0.84348866    -0.05100
N1098       N  0.06007870  0.11802720  0.84392487    -0.61200
Mn1099     Mn  0.09816131  0.09927195  0.82269204     1.18400
C1100       C  0.05582570  0.13008290  0.85975865     0.97100
C1101       C  0.12428505  0.06346993  0.86814748     0.97800
N1102       N  0.12656083  0.15585193  0.78275434    -0.07400
N1103       N  0.11726988  0.16638293  0.76863949    -0.63700
N1104       N  0.16920270  0.13745552  0.80181838    -0.06200
N1105       N  0.18890972  0.13882295  0.79912214    -0.64400
N1106       N  0.16125448  0.12520740  0.78847771    -0.06900
N1107       N  0.17539753  0.11792911  0.77641834    -0.64000
N1108       N  0.13427231  0.16783615  0.79645621    -0.05800
N1109       N  0.13066517  0.18693826  0.79178538    -0.64700
Mn1110     Mn  0.12834885  0.12309982  0.78516015     1.10700
C1111       C  0.11988406  0.18569919  0.77445885     0.98300
C1112       C  0.19260280  0.12638249  0.78335709     0.98400
N1113       N  0.15627435  0.13118470  0.86260427    -0.06900
N1114       N  0.17011277  0.12398680  0.87542313    -0.62300
N1115       N  0.13121057  0.17176140  0.84345295    -0.06200
N1116       N  0.12923912  0.19153593  0.84389621    -0.59000
N1117       N  0.12102641  0.16325273  0.85823624    -0.07600
N1118       N  0.11171992  0.17747480  0.86903829    -0.61900
N1119       N  0.16542445  0.14129867  0.84814011    -0.06500
N1120       N  0.18509559  0.14134749  0.85073316    -0.59000
Mn1121     Mn  0.12191800  0.12932569  0.86172106     1.20200
Mn1122     Mn  0.15022046  0.15499860  0.82254113     1.10100
Cl1123     Cl  0.12470276  0.12664437  0.82317816    -0.87000
C1124       C  0.18806983  0.13063380  0.86771730     0.95300
C1125       C  0.11706221  0.19507429  0.85980454     0.95100
N1126       N  0.62456992  0.35733038  0.09928162    -0.07200
N1127       N  0.63243982  0.36971553  0.08554964    -0.59300
N1128       N  0.58093626  0.34266234  0.12011770    -0.06900
N1129       N  0.56107578  0.34382261  0.12073135    -0.61400
N1130       N  0.58914987  0.35723401  0.13083809    -0.06400
N1131       N  0.57465776  0.36862982  0.13897467    -0.59300
N1132       N  0.61561270  0.34226465  0.09002090    -0.06100
N1133       N  0.61705898  0.34396453  0.07036458    -0.61800
C1134       C  0.62751907  0.36100129  0.06753771     0.95000
C1135       C  0.55719695  0.36001557  0.13245104     0.94800
N1136       N  0.59026739  0.28218815  0.13144115    -0.07400
N1137       N  0.57716248  0.26892684  0.13822558    -0.59900
N1138       N  0.61712254  0.29506396  0.09059735    -0.05500
N1139       N  0.62058301  0.29084949  0.07136397    -0.61100
N1140       N  0.62627855  0.28174639  0.10217625    -0.07400
N1141       N  0.63637895  0.26846422  0.09136152    -0.60100
N1142       N  0.58116570  0.29575848  0.12014562    -0.05100
N1143       N  0.56165691  0.29202226  0.11880513    -0.61200
Mn1144     Mn  0.59843314  0.31903567  0.10478441     1.18400
C1145       C  0.55936551  0.27533325  0.13032999     0.97100
C1146       C  0.63287503  0.27430943  0.07219373     0.97800
N1147       N  0.62179477  0.35823913  0.16775996    -0.07400
N1148       N  0.61345961  0.37056271  0.18141960    -0.63700
N1149       N  0.66570328  0.34292031  0.14675298    -0.06200
N1150       N  0.68554244  0.34414558  0.14609451    -0.64400
N1151       N  0.65715660  0.35733563  0.13585819    -0.06900
N1152       N  0.67138879  0.36861485  0.12742319    -0.64000
N1153       N  0.63137990  0.34348648  0.17717892    -0.05800
N1154       N  0.62990018  0.34528605  0.19681129    -0.64700
Mn1155     Mn  0.62311517  0.35884890  0.13344183     1.10700
C1156       C  0.61877745  0.36208611  0.19954643     0.98300
C1157       C  0.68905601  0.36017647  0.13407077     0.98400
N1158       N  0.65605334  0.28198066  0.13735548    -0.06900
N1159       N  0.66905742  0.26908064  0.12943268    -0.62300
N1160       N  0.62981200  0.29685385  0.17790959    -0.06200
N1161       N  0.62593805  0.29422329  0.19732173    -0.59000
N1162       N  0.62022196  0.28336144  0.16713777    -0.07600
N1163       N  0.60949615  0.27142704  0.17874565    -0.61900
N1164       N  0.66551164  0.29588190  0.14766899    -0.06500
N1165       N  0.68523537  0.29267066  0.14723667    -0.59000
Mn1166     Mn  0.62318018  0.28184801  0.13464143     1.20200
Mn1167     Mn  0.64849428  0.31981456  0.16275098     1.10100
Cl1168     Cl  0.62328747  0.32021944  0.13388747    -0.87000
C1169       C  0.68718235  0.27595044  0.13565113     0.95300
C1170       C  0.61304449  0.27839990  0.19751358     0.95100
N1171       N  0.08735310  0.28183923  0.63472079    -0.07200
N1172       N  0.07479732  0.26887151  0.64293750    -0.59300
N1173       N  0.10918832  0.29505121  0.59094908    -0.06900
N1174       N  0.10925559  0.29151420  0.57135837    -0.61400
N1175       N  0.11889725  0.28070742  0.60070081    -0.06400
N1176       N  0.12613459  0.26718562  0.58800354    -0.59300
N1177       N  0.07741341  0.29583608  0.62467417    -0.06100
N1178       N  0.05775576  0.29264951  0.62576111    -0.61800
C1179       C  0.05635885  0.27586176  0.63739343     0.95000
C1180       C  0.12009216  0.27418435  0.56979007     0.94800
N1181       N  0.12093205  0.35650061  0.60025432    -0.07400
N1182       N  0.12883943  0.36866193  0.58640676    -0.59900
N1183       N  0.07912371  0.34230803  0.62436181    -0.05500
N1184       N  0.05947546  0.34417784  0.62520387    -0.61100
N1185       N  0.08818079  0.35681911  0.63433858    -0.07400
N1186       N  0.07425364  0.36914108  0.64222434    -0.60100
N1187       N  0.11041104  0.34227005  0.59128483    -0.05100
N1188       N  0.11073612  0.34449865  0.57156093    -0.61200
Mn1189     Mn  0.09381615  0.31899618  0.60747921     1.18400
C1190       C  0.12219812  0.36092712  0.56855324     0.97100
C1191       C  0.05639379  0.36079922  0.63629135     0.97800
N1192       N  0.15288551  0.27972723  0.63191945    -0.07400
N1193       N  0.16392806  0.26672501  0.62170309    -0.63700
N1194       N  0.13307892  0.29394631  0.67597146    -0.06200
N1195       N  0.13276351  0.29080697  0.69562286    -0.64400
N1196       N  0.12193166  0.28064650  0.66657608    -0.06900
N1197       N  0.11373024  0.26810162  0.67962274    -0.64000
N1198       N  0.16429289  0.29289661  0.64122285    -0.05800
N1199       N  0.18361923  0.28884792  0.63771667    -0.64700
Mn1200     Mn  0.12022560  0.28018370  0.63363057     1.10700
C1201       C  0.18303330  0.27253545  0.62530102     0.98300
C1202       C  0.12050913  0.27472997  0.69769486     0.98400
N1203       N  0.12380944  0.35529437  0.66826874    -0.06900
N1204       N  0.11571694  0.36686700  0.68259460    -0.62300
N1205       N  0.16556118  0.34026930  0.64317256    -0.06200
N1206       N  0.18528643  0.34226669  0.64284269    -0.59000
N1207       N  0.15646345  0.35551397  0.63403016    -0.07600
N1208       N  0.17028128  0.36825501  0.62710343    -0.61900
N1209       N  0.13420063  0.34043404  0.67668128    -0.06500
N1210       N  0.13339015  0.34149592  0.69650184    -0.59000
Mn1211     Mn  0.12233428  0.35724767  0.63426305     1.20200
Mn1212     Mn  0.14977758  0.31689085  0.65952132     1.10100
Cl1213     Cl  0.12156990  0.31848306  0.63370612    -0.87000
C1214       C  0.12189505  0.35797122  0.70016547     0.95300
C1215       C  0.18822084  0.35965772  0.63281497     0.95100
N1216       N  0.12185933  0.40358816  0.10008347    -0.07200
N1217       N  0.11302707  0.39179231  0.08647416    -0.59300
N1218       N  0.16610182  0.41470500  0.12106815    -0.06900
N1219       N  0.18577327  0.41209596  0.12142843    -0.61400
N1220       N  0.15691658  0.40096641  0.13209398    -0.06400
N1221       N  0.17065706  0.38864346  0.14029616    -0.59300
N1222       N  0.13211146  0.41776658  0.09067285    -0.06100
N1223       N  0.13071258  0.41589368  0.07099179    -0.61800
C1224       C  0.11882169  0.39976249  0.06835455     0.95000
C1225       C  0.18862997  0.39587713  0.13333041     0.94800
N1226       N  0.16174455  0.47505832  0.13351493    -0.07400
N1227       N  0.17574476  0.48629510  0.14185640    -0.59900
N1228       N  0.13493881  0.46525585  0.09129271    -0.05500
N1229       N  0.13121431  0.46944776  0.07206129    -0.61100
N1230       N  0.12717536  0.47938551  0.10287659    -0.07400
N1231       N  0.11779973  0.49323406  0.09211921    -0.60100
N1232       N  0.16999547  0.46102813  0.12214520    -0.05100
N1233       N  0.18990091  0.46243299  0.12240891    -0.61200
Mn1234     Mn  0.15102348  0.43958604  0.10576436     1.18400
C1235       C  0.19325047  0.47817774  0.13495377     0.97100
C1236       C  0.12029909  0.48692731  0.07297977     0.97800
N1237       N  0.12364857  0.40296061  0.16866334    -0.07400
N1238       N  0.13109746  0.39027391  0.18247805    -0.63700
N1239       N  0.08112180  0.42098622  0.14666966    -0.06200
N1240       N  0.06120869  0.42043202  0.14652244    -0.64400
N1241       N  0.08894147  0.40572014  0.13647049    -0.06900
N1242       N  0.07416514  0.39440829  0.12918884    -0.64000
N1243       N  0.11466198  0.41821374  0.17786846    -0.05800
N1244       N  0.11567497  0.41637326  0.19755487    -0.64700
Mn1245     Mn  0.12284287  0.40207571  0.13435553     1.10700
C1246       C  0.12586686  0.39900702  0.20046969     0.98300
C1247       C  0.05692052  0.40386035  0.13557995     0.98400
N1248       N  0.09629006  0.48090086  0.13655146    -0.06900
N1249       N  0.08475971  0.49321850  0.12594331    -0.62300
N1250       N  0.11918876  0.46460941  0.17840010    -0.06200
N1251       N  0.12162081  0.46768588  0.19796522    -0.59000
N1252       N  0.13033548  0.47719186  0.16801017    -0.07600
N1253       N  0.14066702  0.48899031  0.18006583    -0.61900
N1254       N  0.08527766  0.46772991  0.14633627    -0.06500
N1255       N  0.06588993  0.47089414  0.14278487    -0.59000
Mn1256     Mn  0.12903490  0.47867044  0.13540959     1.20200
Mn1257     Mn  0.09963689  0.44292024  0.16269490     1.10100
Cl1258     Cl  0.12562667  0.44063388  0.13454488    -0.87000
C1259       C  0.06589849  0.48679150  0.12994051     0.95300
C1260       C  0.13524601  0.48284893  0.19870082     0.95100
N1261       N  0.40570134  0.38201120  0.22999801    -0.07200
N1262       N  0.41854685  0.37532419  0.24373707    -0.59300
N1263       N  0.38044363  0.42327299  0.21521364    -0.06900
N1264       N  0.37835829  0.44284773  0.21867721    -0.61400
N1265       N  0.37060307  0.41283927  0.22885472    -0.06400
N1266       N  0.36144452  0.42493416  0.24175258    -0.59300
N1267       N  0.41523630  0.39219944  0.21597277    -0.06100
N1268       N  0.43476595  0.39290262  0.21993061    -0.61800
C1269       C  0.43663988  0.38212004  0.23719926     0.95000
C1270       C  0.36624371  0.44359930  0.23517301     0.94800
N1271       N  0.37196804  0.41317987  0.15366402    -0.07400
N1272       N  0.36419492  0.42697215  0.14108830    -0.59900
N1273       N  0.41545609  0.39128923  0.16881177    -0.05500
N1274       N  0.43528059  0.39048775  0.16736420    -0.61100
N1275       N  0.40688661  0.38051421  0.15449655    -0.07400
N1276       N  0.42109583  0.37194309  0.14309462    -0.60100
N1277       N  0.38158520  0.42247706  0.16832155    -0.05100
N1278       N  0.38069417  0.44216374  0.16615477    -0.61200
Mn1279     Mn  0.39847102  0.40757807  0.19198951     1.18400
C1280       C  0.36990220  0.44504668  0.14923883     0.97100
C1281       C  0.43875623  0.37844667  0.15133766     0.97800
N1282       N  0.33957700  0.37790900  0.22945782    -0.07400
N1283       N  0.32629409  0.38604125  0.24196046    -0.63700
N1284       N  0.36581378  0.33589916  0.21679538    -0.06200
N1285       N  0.36942797  0.31655312  0.22071331    -0.64400
N1286       N  0.37493391  0.34730665  0.23011458    -0.06900
N1287       N  0.38510170  0.33623710  0.24311998    -0.64000
N1288       N  0.33041995  0.36683884  0.21590052    -0.05800
N1289       N  0.31068902  0.36713493  0.21884876    -0.64700
Mn1290     Mn  0.37261305  0.38002664  0.23007525     1.10700
C1291       C  0.30831296  0.37929553  0.23508437     0.98300
C1292       C  0.38170680  0.31712247  0.23713725     0.98400
N1293       N  0.37403017  0.34439740  0.15455357    -0.06900
N1294       N  0.38205854  0.33067936  0.14213960    -0.62300
N1295       N  0.33050787  0.36593086  0.16919707    -0.06200
N1296       N  0.31068798  0.36622060  0.16777467    -0.59000
N1297       N  0.33884352  0.37661626  0.15463244    -0.07600
N1298       N  0.32443125  0.38446319  0.14296073    -0.61900
N1299       N  0.36464006  0.33509280  0.16940606    -0.06500
N1300       N  0.36577689  0.31537143  0.16737684    -0.59000
Mn1301     Mn  0.37288152  0.37871883  0.15308943     1.20200
Mn1302     Mn  0.34758919  0.35048809  0.19280747     1.10100
Cl1303     Cl  0.37288147  0.37918453  0.19169121    -0.87000
C1304       C  0.37663731  0.31260538  0.15043562     0.95300
C1305       C  0.30692684  0.37773579  0.15143144     0.95100
N1306       N  0.65632767  0.62816320  0.40499960    -0.07200
N1307       N  0.67048894  0.63521784  0.39266339    -0.59300
N1308       N  0.63191131  0.58653750  0.41904517    -0.06900
N1309       N  0.63133565  0.56686945  0.41682015    -0.61400
N1310       N  0.62203771  0.59590648  0.40445517    -0.06400
N1311       N  0.61432497  0.58227902  0.39193141    -0.59300
N1312       N  0.66495316  0.61764986  0.41957971    -0.06100
N1313       N  0.68470152  0.61717595  0.41751722    -0.61800
C1314       C  0.68814369  0.62812437  0.40077618     0.95000
C1315       C  0.62042545  0.56420990  0.39997193     0.94800
N1316       N  0.62121159  0.59529623  0.47993070    -0.07400
N1317       N  0.61334260  0.58251139  0.49298303    -0.59900
N1318       N  0.66441124  0.61780652  0.46640125    -0.05500
N1319       N  0.68408498  0.61956967  0.46887235    -0.61100
N1320       N  0.65455631  0.62766555  0.48055352    -0.07400
N1321       N  0.66729388  0.63651241  0.49293704    -0.60100
N1322       N  0.63124726  0.58550210  0.46586489    -0.05100
N1323       N  0.63054553  0.56584008  0.46906330    -0.61200
Mn1324     Mn  0.64839374  0.60160126  0.44272801     1.18400
C1325       C  0.61915536  0.56416615  0.48592748     0.97100
C1326       C  0.68565004  0.63139986  0.48539864     0.97800
N1327       N  0.58818515  0.63209417  0.40486219    -0.07400
N1328       N  0.57400198  0.62534714  0.39240179    -0.63700
N1329       N  0.61263468  0.67298299  0.42090043    -0.06200
N1330       N  0.61395352  0.69270333  0.41990812    -0.64400
N1331       N  0.62260327  0.66420290  0.40603503    -0.06900
N1332       N  0.63111384  0.67829131  0.39456672    -0.64000
N1333       N  0.57954603  0.64204500  0.41980406    -0.05800
N1334       N  0.55982190  0.64233860  0.41796422    -0.64700
Mn1335     Mn  0.62225657  0.63011635  0.40383028     1.10700
C1336       C  0.55635894  0.63194913  0.40095146     0.98300
C1337       C  0.62543003  0.69601422  0.40354970     0.98400
N1338       N  0.62199810  0.66148441  0.48146457    -0.06900
N1339       N  0.63068678  0.67349542  0.49465969    -0.62300
N1340       N  0.57892003  0.64017289  0.46639146    -0.06200
N1341       N  0.55917979  0.63917125  0.46890512    -0.59000
N1342       N  0.58838837  0.62938224  0.48013725    -0.07600
N1343       N  0.57530842  0.62066850  0.49230133    -0.61900
N1344       N  0.61252057  0.67211825  0.46762503    -0.06500
N1345       N  0.61443001  0.69164810  0.47111321    -0.59000
Mn1346     Mn  0.62148426  0.62839391  0.48117981     1.20200
Mn1347     Mn  0.59563758  0.65713562  0.44365515     1.10100
Cl1348     Cl  0.62191664  0.62928112  0.44257937    -0.87000
C1349       C  0.62594440  0.69227939  0.48797344     0.95300
C1350       C  0.55714771  0.62682531  0.48503468     0.95100
N1351       N  0.52482424  0.35000269  0.38954276    -0.07200
N1352       N  0.51180886  0.33874426  0.37984370    -0.59300
N1353       N  0.54233344  0.37117659  0.43168419    -0.06900
N1354       N  0.53987682  0.37161469  0.45149337    -0.61400
N1355       N  0.52848176  0.38230097  0.42274010    -0.06400
N1356       N  0.51637651  0.39068494  0.43617004    -0.59300
N1357       N  0.53886003  0.33880285  0.39810625    -0.06100
N1358       N  0.53551767  0.31942265  0.39458402    -0.61800
C1359       C  0.51858746  0.31975148  0.38302312     0.95000
C1360       C  0.52371816  0.38406430  0.45406306     0.94800
N1361       N  0.60313294  0.37925508  0.41833301    -0.07400
N1362       N  0.61575929  0.38724976  0.43176357    -0.59900
N1363       N  0.58575442  0.33720006  0.39549824    -0.05500
N1364       N  0.58652813  0.31742699  0.39410384    -0.61100
N1365       N  0.60010907  0.34570260  0.38472495    -0.07400
N1366       N  0.61102899  0.33137795  0.37565973    -0.60100
N1367       N  0.58898904  0.36916858  0.42797392    -0.05100
N1368       N  0.59160643  0.36995725  0.44758043    -0.61200
Mn1369     Mn  0.56409993  0.35367678  0.41364129     1.18400
C1370       C  0.60824796  0.38114789  0.45000879     0.97100
C1371       C  0.60223196  0.31380017  0.38174220     0.97800
N1372       N  0.52744948  0.41549953  0.38966236    -0.07400
N1373       N  0.51615398  0.42846008  0.39972177    -0.63700
N1374       N  0.53637958  0.39178892  0.34549363    -0.06200
N1375       N  0.53139678  0.38990740  0.32625961    -0.64400
N1376       N  0.52315946  0.38267447  0.35703383    -0.06900
N1377       N  0.50907186  0.37411661  0.34603104    -0.64000
N1378       N  0.54031385  0.42497035  0.37800252    -0.05800
N1379       N  0.53794580  0.44473899  0.37975267    -0.64700
Mn1380     Mn  0.52546693  0.38274632  0.38988996     1.10700
C1381       C  0.52291797  0.44662980  0.39353887     0.98300
C1382       C  0.51438969  0.37866290  0.32689041     0.98400
N1383       N  0.59876855  0.38024498  0.34998421    -0.06900
N1384       N  0.61014069  0.37218594  0.33547092    -0.62300
N1385       N  0.58665989  0.42308623  0.37337443    -0.06200
N1386       N  0.58866576  0.44275275  0.37317091    -0.59000
N1387       N  0.60182294  0.41415313  0.38280631    -0.07600
N1388       N  0.61463855  0.42817136  0.38926183    -0.61900
N1389       N  0.58366855  0.39046929  0.34177847    -0.06500
N1390       N  0.58452102  0.38981194  0.32194589    -0.59000
Mn1391     Mn  0.60224298  0.37984380  0.38400357     1.20200
Mn1392     Mn  0.56176489  0.40781177  0.35924757     1.10100
Cl1393     Cl  0.56357943  0.38103767  0.38669999    -0.87000
C1394       C  0.60098764  0.37839637  0.31804781     0.95300
C1395       C  0.60602285  0.44599048  0.38302316     0.95100
N1396       N  0.35461939  0.09614817  0.63238505    -0.07200
N1397       N  0.36575480  0.08181619  0.64129768    -0.59300
N1398       N  0.34100066  0.12108753  0.59001899    -0.06900
N1399       N  0.34324433  0.12233329  0.57041633    -0.61400
N1400       N  0.35531479  0.13087738  0.59957720    -0.06400
N1401       N  0.36767937  0.13927182  0.58614297    -0.59300
N1402       N  0.34069134  0.08757742  0.62115110    -0.06100
N1403       N  0.34200871  0.06779565  0.62202744    -0.61800
C1404       C  0.35759841  0.06415181  0.63452502     0.95000
C1405       C  0.35981719  0.13360571  0.56796418     0.94800
N1406       N  0.27973475  0.13049293  0.59877699    -0.07400
N1407       N  0.26710566  0.13985555  0.58654500    -0.59900
N1408       N  0.29419237  0.08676081  0.61965274    -0.05500
N1409       N  0.29143692  0.06705671  0.61917133    -0.61100
N1410       N  0.27979375  0.09578857  0.62997594    -0.07400
N1411       N  0.26691787  0.08234178  0.63692199    -0.60100
N1412       N  0.29402297  0.12119390  0.58852823    -0.05100
N1413       N  0.29122677  0.12374355  0.56892959    -0.61200
Mn1414     Mn  0.31759567  0.10394196  0.60448916     1.18400
C1415       C  0.27448376  0.13564288  0.56801482     0.97100
C1416       C  0.27447207  0.06448120  0.63017243     0.97800
N1417       N  0.35294590  0.16449849  0.63460518    -0.07400
N1418       N  0.36432011  0.17866011  0.62617813    -0.63700
N1419       N  0.33794209  0.14038458  0.67634384    -0.06200
N1420       N  0.33931174  0.13977939  0.69609271    -0.64400
N1421       N  0.35299628  0.13051958  0.66770905    -0.06900
N1422       N  0.36496120  0.12274092  0.68190451    -0.64000
N1423       N  0.33789072  0.17312148  0.64449977    -0.05800
N1424       N  0.33875692  0.19291612  0.64323960    -0.64700
Mn1425     Mn  0.35523613  0.13046043  0.63367476     1.10700
C1426       C  0.35522673  0.19633319  0.63185350     0.98300
C1427       C  0.35610980  0.12880710  0.69953033     0.98400
N1428       N  0.27807562  0.12802851  0.66446247    -0.06900
N1429       N  0.26520077  0.11863352  0.67625420    -0.62300
N1430       N  0.29096553  0.17214469  0.64329247    -0.06200
N1431       N  0.28729085  0.19173853  0.64259701    -0.59000
N1432       N  0.27745480  0.16221739  0.63285655    -0.07600
N1433       N  0.26428016  0.17488058  0.62468015    -0.61900
N1434       N  0.29102393  0.13840406  0.67521607    -0.06500
N1435       N  0.28707796  0.13646112  0.69469106    -0.59000
Mn1436     Mn  0.27814285  0.12904443  0.63156097     1.20200
Mn1437     Mn  0.31451025  0.15633455  0.66017289     1.10100
Cl1438     Cl  0.31649079  0.12992146  0.63252502    -0.87000
C1439       C  0.27102587  0.12390305  0.69504277     0.95300
C1440       C  0.27069373  0.19325612  0.63080592     0.95100
N1441       N  0.27429636  0.63010281  0.09494543    -0.07200
N1442       N  0.26201985  0.63832001  0.08157297    -0.59300
N1443       N  0.28654075  0.58711577  0.11949479    -0.06900
N1444       N  0.28402749  0.56760919  0.12298210    -0.61400
N1445       N  0.27214838  0.59770071  0.12823072    -0.06400
N1446       N  0.25967528  0.58586280  0.13802117    -0.59300
N1447       N  0.28859017  0.61963702  0.08595298    -0.06100
N1448       N  0.28630153  0.62033347  0.06615598    -0.61800
C1449       C  0.26976205  0.63225546  0.06367418     0.95000
C1450       C  0.26722904  0.56718183  0.13470707     0.94800
N1451       N  0.34760426  0.59563158  0.13213417    -0.07400
N1452       N  0.35979959  0.58149484  0.13989366    -0.59900
N1453       N  0.33528618  0.61935894  0.08916644    -0.05500
N1454       N  0.33801737  0.62033799  0.06955993    -0.61100
N1455       N  0.34917445  0.62965585  0.09890695    -0.07400
N1456       N  0.36171327  0.63800746  0.08559988    -0.60100
N1457       N  0.33352071  0.58685204  0.12127116    -0.05100
N1458       N  0.33575608  0.56712532  0.12127089    -0.61200
Mn1459     Mn  0.31103002  0.60288162  0.10368499     1.18400
C1460       C  0.35208247  0.56374109  0.13285861     0.97100
C1461       C  0.35445986  0.63190061  0.06729567     0.97800
N1462       N  0.26943107  0.63039504  0.16045094    -0.07400
N1463       N  0.25646238  0.62035156  0.17157448    -0.63700
N1464       N  0.28472488  0.67346080  0.13864762    -0.06200
N1465       N  0.28199917  0.69309620  0.13578380    -0.64400
N1466       N  0.27209123  0.66322532  0.12743732    -0.06900
N1467       N  0.26064067  0.67544646  0.11663435    -0.64000
N1468       N  0.28229885  0.64008246  0.17185604    -0.05800
N1469       N  0.27824393  0.63696816  0.19117179    -0.64700
Mn1470     Mn  0.27148570  0.63046166  0.12768256     1.10700
C1471       C  0.26210693  0.62449110  0.19068397     0.98300
C1472       C  0.26699131  0.69403145  0.12183421     0.98400
N1473       N  0.34679345  0.66407028  0.13422050    -0.06900
N1474       N  0.35970205  0.67797118  0.12784500    -0.62300
N1475       N  0.32934169  0.64047340  0.17536995    -0.06200
N1476       N  0.33016644  0.63980224  0.19522258    -0.59000
N1477       N  0.34461233  0.63045216  0.16719472    -0.07600
N1478       N  0.35613053  0.62268333  0.18173487    -0.61900
N1479       N  0.33149930  0.67302717  0.14344431    -0.06500
N1480       N  0.33363258  0.69272646  0.14368956    -0.59000
Mn1481     Mn  0.34828703  0.62995414  0.13318026     1.20200
Mn1482     Mn  0.30688740  0.65715675  0.15776914     1.10100
Cl1483     Cl  0.30978206  0.63014176  0.13063162    -0.87000
C1484       C  0.35117291  0.69577197  0.13398956     0.95300
C1485       C  0.34683892  0.62867603  0.19914825     0.95100
N1486       N  0.47308018  0.12396807  0.10653889    -0.07200
N1487       N  0.48590477  0.11347345  0.09547647    -0.59300
N1488       N  0.45944835  0.16840177  0.12648549    -0.06900
N1489       N  0.46393264  0.18783265  0.12701161    -0.61400
N1490       N  0.47194014  0.15803223  0.13798488    -0.06400
N1491       N  0.48500019  0.17002615  0.14674216    -0.59300
N1492       N  0.46030692  0.13399939  0.09506278    -0.06100
N1493       N  0.46427671  0.13068933  0.07581072    -0.61800
C1494       C  0.48019635  0.11770081  0.07636796     0.95000
C1495       C  0.47980925  0.18856517  0.13992177     0.94800
N1496       N  0.39692342  0.16193134  0.13239570    -0.07400
N1497       N  0.38466177  0.17651119  0.13908297    -0.59900
N1498       N  0.41346106  0.13647759  0.09143379    -0.05500
N1499       N  0.41279931  0.13480881  0.07162418    -0.61100
N1500       N  0.39816850  0.12712012  0.09995794    -0.07400
N1501       N  0.38683954  0.11867535  0.08573543    -0.60100
N1502       N  0.41234909  0.17010906  0.12289956    -0.05100
N1503       N  0.41097973  0.18994216  0.12289692    -0.61200
Mn1504     Mn  0.43639775  0.15264736  0.10857447     1.18400
C1505       C  0.39374395  0.19394524  0.13297160     0.97100
C1506       C  0.39621014  0.12370001  0.06808088     0.97800
N1507       N  0.46899644  0.12627000  0.17212272    -0.07400
N1508       N  0.48114181  0.13504455  0.18509864    -0.63700
N1509       N  0.45610093  0.08280444  0.14948433    -0.06200
N1510       N  0.45884942  0.06305545  0.14813718    -0.64400
N1511       N  0.47068965  0.09237545  0.14024306    -0.06900
N1512       N  0.48363160  0.07948750  0.13221204    -0.64000
N1513       N  0.45456328  0.11664286  0.18159250    -0.05800
N1514       N  0.45665486  0.11850381  0.20135502    -0.64700
Mn1515     Mn  0.47167672  0.12522451  0.13929711     1.10700
C1516       C  0.47322524  0.13022217  0.20327852     0.98300
C1517       C  0.47603245  0.06126097  0.13714182     0.98400
N1518       N  0.39568586  0.09366898  0.13529226    -0.06900
N1519       N  0.38454168  0.08003172  0.12582596    -0.62300
N1520       N  0.40787676  0.11721272  0.17812517    -0.06200
N1521       N  0.40490282  0.11785849  0.19766554    -0.59000
N1522       N  0.39406402  0.12779698  0.16830283    -0.07600
N1523       N  0.38129617  0.13607042  0.18156564    -0.61900
N1524       N  0.40925102  0.08437990  0.14663528    -0.06500
N1525       N  0.40752161  0.06466108  0.14542104    -0.59000
Mn1526     Mn  0.39494667  0.12774674  0.13399790     1.20200
Mn1527     Mn  0.43186033  0.09992103  0.16428685     1.10100
Cl1528     Cl  0.43341151  0.12650524  0.13658350    -0.87000
C1529       C  0.39212528  0.06200411  0.13248515     0.95300
C1530       C  0.38838887  0.12952832  0.19985403     0.95100
N1531       N  0.34091670  0.15396433  0.38417127    -0.07200
N1532       N  0.32653094  0.14259663  0.39227036    -0.59300
N1533       N  0.36355425  0.16663663  0.34093053    -0.06900
N1534       N  0.36310000  0.16462115  0.32125019    -0.61400
N1535       N  0.37321245  0.15145784  0.34959846    -0.06400
N1536       N  0.37960344  0.13864120  0.33543892    -0.59300
N1537       N  0.33245212  0.16900926  0.37414081    -0.06100
N1538       N  0.31264282  0.16820925  0.37498055    -0.61800
C1539       C  0.30895361  0.15179844  0.38628091     0.95000
C1540       C  0.37307370  0.14723274  0.31779901     0.94800
N1541       N  0.37753324  0.22668966  0.34877781    -0.07400
N1542       N  0.38591970  0.23866102  0.33527643    -0.59900
N1543       N  0.33500520  0.21558885  0.37393902    -0.05500
N1544       N  0.31558696  0.21885959  0.37712842    -0.61100
N1545       N  0.34592819  0.22918609  0.38319608    -0.07400
N1546       N  0.33420784  0.24195109  0.39311879    -0.60100
N1547       N  0.36640999  0.21307892  0.33977342    -0.05100
N1548       N  0.36691058  0.21545182  0.32000388    -0.61200
Mn1549     Mn  0.34908212  0.19110757  0.35695916     1.18400
C1550       C  0.37926879  0.23136721  0.31737769     0.97100
C1551       C  0.31535628  0.23525979  0.38923253     0.97800
N1552       N  0.40935435  0.15035807  0.38335968    -0.07400
N1553       N  0.42293508  0.13764498  0.37542832    -0.63700
N1554       N  0.38764754  0.16732443  0.42603398    -0.06200
N1555       N  0.38765167  0.16606480  0.44580946    -0.64400
N1556       N  0.37687996  0.15283900  0.41784040    -0.06900
N1557       N  0.36920630  0.14134996  0.43239411    -0.64000
N1558       N  0.41885031  0.16486202  0.39297142    -0.05800
N1559       N  0.43847744  0.16246527  0.39194351    -0.64700
Mn1560     Mn  0.37507518  0.15084621  0.38375709     1.10700
C1561       C  0.44109452  0.14557665  0.38107632     0.98300
C1562       C  0.37616837  0.14992607  0.44977074     0.98400
N1563       N  0.38006196  0.22847085  0.41510365    -0.06900
N1564       N  0.37262110  0.24201362  0.42775965    -0.62300
N1565       N  0.42141269  0.21134470  0.39146704    -0.06200
N1566       N  0.44116738  0.21373622  0.39082788    -0.59000
N1567       N  0.41212816  0.22567150  0.38125283    -0.07600
N1568       N  0.42541234  0.23814414  0.37333699    -0.61900
N1569       N  0.38958728  0.21409893  0.42502059    -0.06500
N1570       N  0.38911597  0.21759067  0.44461204    -0.59000
Mn1571     Mn  0.37896990  0.22819569  0.38194696     1.20200
Mn1572     Mn  0.40455792  0.18933155  0.40910624     1.10100
Cl1573     Cl  0.37694067  0.18961079  0.38291797    -0.87000
C1574       C  0.37833459  0.23495577  0.44610818     0.95300
C1575       C  0.44348975  0.23039116  0.37928366     0.95100
N1576       N  0.59773242  0.77983256  0.63772793    -0.07200
N1577       N  0.58668087  0.76563296  0.64601492    -0.59300
N1578       N  0.62040251  0.79275043  0.59447757    -0.06900
N1579       N  0.62198833  0.78700346  0.57537948    -0.61400
N1580       N  0.63136602  0.78084367  0.60607395    -0.06400
N1581       N  0.64072541  0.76698125  0.59529027    -0.59300
N1582       N  0.58653984  0.79176063  0.62638184    -0.06100
N1583       N  0.56751596  0.78578982  0.62660486    -0.61800
C1584       C  0.56785639  0.76955499  0.63910764     0.95000
C1585       C  0.63493608  0.77097085  0.57616914     0.94800
N1586       N  0.62369095  0.85585197  0.60035625    -0.07400
N1587       N  0.63114825  0.86800433  0.58627736    -0.59900
N1588       N  0.58206099  0.83891193  0.62358473    -0.05500
N1589       N  0.56217031  0.83910745  0.62444078    -0.61100
N1590       N  0.58965394  0.85453765  0.63322024    -0.07400
N1591       N  0.57473081  0.86564357  0.64092351    -0.60100
N1592       N  0.61517798  0.84016157  0.59168121    -0.05100
N1593       N  0.61639167  0.84140405  0.57187167    -0.61200
Mn1594     Mn  0.60067122  0.81596033  0.60857606     1.18400
C1595       C  0.62635736  0.85875442  0.56857322     0.97100
C1596       C  0.55766264  0.85577785  0.63524791     0.97800
N1597       N  0.66328589  0.78600595  0.63960168    -0.07400
N1598       N  0.67710053  0.77406748  0.63161585    -0.63700
N1599       N  0.63831530  0.79981411  0.68137455    -0.06200
N1600       N  0.63713238  0.79721387  0.70114764    -0.64400
N1601       N  0.62960131  0.78484702  0.67187623    -0.06900
N1602       N  0.62211646  0.77182897  0.68488096    -0.64000
N1603       N  0.67181641  0.80099849  0.64917744    -0.05800
N1604       N  0.69170847  0.79951389  0.64821688    -0.64700
Mn1605     Mn  0.63052619  0.78243819  0.63890327     1.10700
C1606       C  0.69471381  0.78273588  0.63696972     0.98300
C1607       C  0.62678501  0.77974513  0.70308743     0.98400
N1608       N  0.62342428  0.85967787  0.66865345    -0.06900
N1609       N  0.61428756  0.87157867  0.68218721    -0.62300
N1610       N  0.66746708  0.84728546  0.64647716    -0.06200
N1611       N  0.68706478  0.84975129  0.64505032    -0.59000
N1612       N  0.65758002  0.86034258  0.63507399    -0.07600
N1613       N  0.67076094  0.87196354  0.62536259    -0.61900
N1614       N  0.63472320  0.84630716  0.67822816    -0.06500
N1615       N  0.63373258  0.84867124  0.69781049    -0.59000
Mn1616     Mn  0.62342418  0.85882649  0.63428338     1.20200
Mn1617     Mn  0.65331732  0.82375291  0.66410823     1.10100
Cl1618     Cl  0.62689767  0.82037730  0.63643571    -0.87000
C1619       C  0.62107075  0.86435645  0.70037822     0.95300
C1620       C  0.68915063  0.86512354  0.63197689     0.95100
N1621       N  0.22107264  0.34095096  0.38257814    -0.07200
N1622       N  0.23297012  0.32721930  0.39082784    -0.59300
N1623       N  0.20896354  0.36764591  0.34102113    -0.06900
N1624       N  0.21251664  0.37141988  0.32168515    -0.61400
N1625       N  0.22281526  0.37617034  0.35226608    -0.06400
N1626       N  0.23581557  0.38607908  0.34112575    -0.59300
N1627       N  0.20708971  0.33231643  0.37164141    -0.06100
N1628       N  0.20920060  0.31247018  0.37202579    -0.61800
C1629       C  0.22531517  0.30954347  0.38424422     0.95000
C1630       C  0.22927654  0.38314217  0.32211802     0.94800
N1631       N  0.14713598  0.37836765  0.35034166    -0.07400
N1632       N  0.13488943  0.38669438  0.33662754    -0.59900
N1633       N  0.16043077  0.33439956  0.37173679    -0.05500
N1634       N  0.15851657  0.31464353  0.37254010    -0.61100
N1635       N  0.14642596  0.34350506  0.38270427    -0.07400
N1636       N  0.13469751  0.32972287  0.39129609    -0.60100
N1637       N  0.16168132  0.36837186  0.34101597    -0.05100
N1638       N  0.15972672  0.36947290  0.32135334    -0.61200
Mn1639     Mn  0.18447158  0.35039404  0.35587383     1.18400
C1640       C  0.14309615  0.38086774  0.31857027     0.97100
C1641       C  0.14246574  0.31174798  0.38468498     0.97800
N1642       N  0.22452869  0.40679767  0.38701035    -0.07400
N1643       N  0.23828466  0.41912414  0.37965730    -0.63700
N1644       N  0.20886503  0.38196930  0.42815773    -0.06200
N1645       N  0.21161903  0.37874445  0.44765106    -0.64400
N1646       N  0.22213453  0.37161404  0.41757820    -0.06900
N1647       N  0.23410626  0.36100677  0.42948849    -0.64000
N1648       N  0.21088527  0.41693486  0.39730792    -0.05800
N1649       N  0.21510541  0.43637458  0.39741201    -0.64700
Mn1650     Mn  0.22321387  0.37378661  0.38485843     1.10700
C1651       C  0.23215319  0.43754976  0.38620641     0.98300
C1652       C  0.22731913  0.36546314  0.44820641     0.98400
N1653       N  0.14701563  0.37707872  0.41891994    -0.06900
N1654       N  0.13390294  0.37065751  0.43273995    -0.62300
N1655       N  0.16367195  0.41939472  0.39701930    -0.06200
N1656       N  0.16242924  0.43924010  0.39709208    -0.59000
N1657       N  0.14868891  0.41146436  0.38666952    -0.07600
N1658       N  0.13692064  0.42613344  0.37942865    -0.61900
N1659       N  0.16223233  0.38587873  0.42808451    -0.06500
N1660       N  0.15996459  0.38568825  0.44776209    -0.59000
Mn1661     Mn  0.14611733  0.37759984  0.38464343     1.20200
Mn1662     Mn  0.18640041  0.40136045  0.41290991     1.10100
Cl1663     Cl  0.18489016  0.37582142  0.38454827    -0.87000
C1664       C  0.14236741  0.37621496  0.45070776     0.95300
C1665       C  0.14577591  0.44339699  0.38611742     0.95100
N1666       N  0.58927748  0.62588642  0.86397029    -0.07200
N1667       N  0.57469579  0.63395797  0.87526019    -0.59300
N1668       N  0.61528931  0.58420275  0.85078837    -0.06900
N1669       N  0.61549370  0.56460848  0.85356910    -0.61400
N1670       N  0.62408825  0.59368644  0.86582076    -0.06400
N1671       N  0.63064999  0.58014116  0.87928196    -0.59300
N1672       N  0.58119641  0.61482236  0.84958087    -0.06100
N1673       N  0.56134914  0.61501745  0.85080902    -0.61800
C1674       C  0.55733644  0.62691181  0.86681420     0.95000
C1675       C  0.62503392  0.56201736  0.87125190     0.94800
N1676       N  0.62698601  0.59426008  0.78997562    -0.07400
N1677       N  0.63689958  0.58253932  0.77728700    -0.59900
N1678       N  0.58218107  0.61375556  0.80280600    -0.05500
N1679       N  0.56264394  0.61268464  0.79919069    -0.61100
N1680       N  0.59130887  0.62449005  0.78891468    -0.07400
N1681       N  0.57809922  0.63112670  0.77549558    -0.60100
N1682       N  0.61756361  0.58343736  0.80362041    -0.05100
N1683       N  0.62063990  0.56393462  0.80026645    -0.61200
Mn1684     Mn  0.59888078  0.59873245  0.82673293     1.18400
C1685       C  0.63296898  0.56367719  0.78388121     0.97100
C1686       C  0.56028839  0.62372056  0.78221399     0.97800
N1687       N  0.65723186  0.62975856  0.86477031    -0.07400
N1688       N  0.67146739  0.62127389  0.87622426    -0.63700
N1689       N  0.63195994  0.67128758  0.84943056    -0.06200
N1690       N  0.63130857  0.69098369  0.85128154    -0.64400
N1691       N  0.62242069  0.66227629  0.86435203    -0.06900
N1692       N  0.61489313  0.67626689  0.87677398    -0.64000
N1693       N  0.66578797  0.64034755  0.85026787    -0.05800
N1694       N  0.68558934  0.63943951  0.85157442    -0.64700
Mn1695     Mn  0.62323530  0.62797610  0.86598294     1.10700
C1696       C  0.68910698  0.62760405  0.86773851     0.98300
C1697       C  0.62070311  0.69412634  0.86824914     0.98400
N1698       N  0.62223287  0.66015252  0.78877620    -0.06900
N1699       N  0.61371155  0.67179420  0.77501550    -0.62300
N1700       N  0.66647409  0.64002646  0.80364227    -0.06200
N1701       N  0.68624587  0.63949965  0.80112717    -0.59000
N1702       N  0.65739212  0.62929619  0.78978671    -0.07600
N1703       N  0.67078308  0.62101353  0.77754751    -0.61900
N1704       N  0.63166615  0.67110402  0.80228038    -0.06500
N1705       N  0.62990316  0.69055830  0.79783887    -0.59000
Mn1706     Mn  0.62439754  0.62711939  0.78883940     1.20200
Mn1707     Mn  0.64918013  0.65604492  0.82647977     1.10100
Cl1708     Cl  0.62383479  0.62753883  0.82728784    -0.87000
C1709       C  0.61844301  0.69072799  0.78085837     0.95300
C1710       C  0.68870150  0.62742629  0.78487663     0.95100
N1711       N  0.33529823  0.38369748  0.53773818    -0.07200
N1712       N  0.32227933  0.37465264  0.52583665    -0.59300
N1713       N  0.35854787  0.42617975  0.55203264    -0.06900
N1714       N  0.35983090  0.44594901  0.54951187    -0.61400
N1715       N  0.36806190  0.41660268  0.53749061    -0.06400
N1716       N  0.37624493  0.42950170  0.52486380    -0.59300
N1717       N  0.32585700  0.39319772  0.55238773    -0.06100
N1718       N  0.30610619  0.39101771  0.55070884    -0.61800
C1719       C  0.30415443  0.37925717  0.53414188     0.95000
C1720       C  0.37112713  0.44772961  0.53255808     0.94800
N1721       N  0.37150085  0.41418530  0.61235654    -0.07400
N1722       N  0.38052935  0.42756241  0.62420694    -0.59900
N1723       N  0.32832242  0.39188703  0.59901020    -0.05500
N1724       N  0.30868740  0.39150575  0.60160697    -0.61100
N1725       N  0.33780544  0.38106187  0.61282898    -0.07400
N1726       N  0.32422441  0.37292273  0.62522558    -0.60100
N1727       N  0.36056958  0.42375263  0.59869543    -0.05100
N1728       N  0.36172504  0.44336936  0.60090000    -0.61200
Mn1729     Mn  0.34300690  0.40908508  0.57559398     1.18400
C1730       C  0.37411568  0.44573676  0.61675368     0.97100
C1731       C  0.30607069  0.37974380  0.61789527     0.97800
N1732       N  0.40129438  0.38365262  0.53420231    -0.07400
N1733       N  0.41311081  0.39353166  0.52164856    -0.63700
N1734       N  0.37919810  0.33997092  0.54697081    -0.06200
N1735       N  0.37767565  0.32057267  0.54260886    -0.64400
N1736       N  0.36837640  0.35085724  0.53433362    -0.06900
N1737       N  0.35906142  0.33921897  0.52126409    -0.64000
N1738       N  0.41211240  0.37281719  0.54689183    -0.05800
N1739       N  0.43159281  0.37495099  0.54317525    -0.64700
Mn1740     Mn  0.36823429  0.38375019  0.53537250     1.10700
C1741       C  0.43196794  0.38803883  0.52745936     0.98300
C1742       C  0.36486685  0.32036155  0.52664921     0.98400
N1743       N  0.37281432  0.34627623  0.60939318    -0.06900
N1744       N  0.36526452  0.33201059  0.62126561    -0.62300
N1745       N  0.41467428  0.37011875  0.59363801    -0.06200
N1746       N  0.43450271  0.37156757  0.59404646    -0.59000
N1747       N  0.40631542  0.37981836  0.60892555    -0.07600
N1748       N  0.42071451  0.38830448  0.61997956    -0.61900
N1749       N  0.38217949  0.33779625  0.59396674    -0.06500
N1750       N  0.38131755  0.31798890  0.59500229    -0.59000
Mn1751     Mn  0.37217780  0.38021423  0.61214884     1.20200
Mn1752     Mn  0.39740701  0.35473442  0.57037609     1.10100
Cl1753     Cl  0.37021680  0.38187809  0.57365792    -0.87000
C1754       C  0.37078052  0.31442361  0.61200042     0.95300
C1755       C  0.43825454  0.38288182  0.61046688     0.95100
N1756       N  0.39703897  0.66257951  0.63135284    -0.07200
N1757       N  0.38564020  0.67710774  0.63939053    -0.59300
N1758       N  0.41092334  0.63636483  0.59005201    -0.06900
N1759       N  0.40915562  0.63470854  0.57037499    -0.61400
N1760       N  0.39604778  0.62721378  0.59949138    -0.06400
N1761       N  0.38380955  0.61891436  0.58588744    -0.59300
N1762       N  0.41175976  0.67070640  0.62073986    -0.06100
N1763       N  0.41069490  0.69057891  0.62131412    -0.61800
C1764       C  0.39439642  0.69452464  0.63292594     0.95000
C1765       C  0.39230182  0.62385858  0.56772095     0.94800
N1766       N  0.47129589  0.62388677  0.60130123    -0.07400
N1767       N  0.48406625  0.61369929  0.58993945    -0.59900
N1768       N  0.45889449  0.66906295  0.62037466    -0.05500
N1769       N  0.46306810  0.68850600  0.61945393    -0.61100
N1770       N  0.47252134  0.65933570  0.63112257    -0.07400
N1771       N  0.48623085  0.67196127  0.63790206    -0.60100
N1772       N  0.45802901  0.63372017  0.59021437    -0.05100
N1773       N  0.46169297  0.63057297  0.57083020    -0.61200
Mn1774     Mn  0.43482171  0.65282065  0.60495548     1.18400
C1775       C  0.47788872  0.61783790  0.57098680     0.97100
C1776       C  0.48008061  0.69011771  0.63060816     0.97800
N1777       N  0.39576177  0.59483598  0.63647491    -0.07400
N1778       N  0.38407070  0.58070671  0.62854855    -0.63700
N1779       N  0.41088848  0.62038432  0.67742710    -0.06200
N1780       N  0.40868150  0.62103575  0.69705969    -0.64400
N1781       N  0.39599073  0.62983636  0.66807653    -0.06900
N1782       N  0.38316798  0.63724404  0.68176871    -0.64000
N1783       N  0.41003557  0.58621817  0.64744393    -0.05800
N1784       N  0.40842373  0.56646596  0.64731418    -0.64700
Mn1785     Mn  0.39493248  0.62867841  0.63380119     1.10700
C1786       C  0.39225958  0.56307777  0.63557498     0.98300
C1787       C  0.39148761  0.63152247  0.69980951     0.98400
N1788       N  0.47162409  0.62858454  0.66658264    -0.06900
N1789       N  0.48518682  0.63722868  0.67810428    -0.62300
N1790       N  0.45632594  0.58465792  0.64709523    -0.06200
N1791       N  0.45799956  0.56482130  0.64639393    -0.59000
N1792       N  0.47043489  0.59324911  0.63626604    -0.07600
N1793       N  0.48207367  0.57940072  0.62777165    -0.61900
N1794       N  0.45789528  0.61954706  0.67757468    -0.06500
N1795       N  0.46199779  0.62158820  0.69700003    -0.59000
Mn1796     Mn  0.47199848  0.62627923  0.63386951     1.20200
Mn1797     Mn  0.43374802  0.60253848  0.66275951     1.10100
Cl1798     Cl  0.43359223  0.62769935  0.63387482    -0.87000
C1799       C  0.47896100  0.63290879  0.69700712     0.95300
C1800       C  0.47403643  0.56175429  0.63415440     0.95100
N1801       N  0.65577742  0.47689424  0.63990369    -0.07200
N1802       N  0.66783061  0.48856199  0.65036644    -0.59300
N1803       N  0.63355304  0.46696193  0.59513040    -0.06900
N1804       N  0.63108687  0.47142930  0.57578602    -0.61400
N1805       N  0.62369721  0.47999880  0.60644673    -0.06400
N1806       N  0.61415135  0.49341670  0.59523881    -0.59300
N1807       N  0.66621348  0.46421082  0.62870771    -0.06100
N1808       N  0.68580403  0.46711266  0.63122912    -0.61800
C1809       C  0.68650287  0.48225606  0.64497840     0.95000
C1810       C  0.61877654  0.48794180  0.57617917     0.94800
N1811       N  0.62447209  0.40446449  0.60001815    -0.07400
N1812       N  0.61728782  0.39267842  0.58552705    -0.59900
N1813       N  0.66630169  0.41753274  0.62480991    -0.05500
N1814       N  0.68604951  0.41580010  0.62608098    -0.61100
N1815       N  0.65724556  0.40254979  0.63418697    -0.07400
N1816       N  0.67112340  0.39026017  0.64219556    -0.60100
N1817       N  0.63447835  0.41955397  0.59183856    -0.05100
N1818       N  0.63443836  0.41830914  0.57199341    -0.61200
Mn1819     Mn  0.65049855  0.44206939  0.60961747     1.18400
C1820       C  0.62368989  0.40157230  0.56810461     0.97100
C1821       C  0.68905517  0.39882853  0.63687851     0.97800
N1822       N  0.59032432  0.47791374  0.63800309    -0.07400
N1823       N  0.57873935  0.49059555  0.62794510    -0.63700
N1824       N  0.61119198  0.46106972  0.68080543    -0.06200
N1825       N  0.61194929  0.46280018  0.70066098    -0.64400
N1826       N  0.62197038  0.47518516  0.67214938    -0.06900
N1827       N  0.63040859  0.48680665  0.68585814    -0.64000
N1828       N  0.57951395  0.46370908  0.64646062    -0.05800
N1829       N  0.56009834  0.46658028  0.64256250    -0.64700
Mn1830     Mn  0.62304809  0.47805415  0.63925430     1.10700
C1831       C  0.55998748  0.48336228  0.63081677     0.98300
C1832       C  0.62414373  0.47884166  0.70359188     0.98400
N1833       N  0.62190853  0.40094024  0.66815230    -0.06900
N1834       N  0.63131088  0.38946865  0.68183376    -0.62300
N1835       N  0.57940652  0.41690384  0.64418714    -0.06200
N1836       N  0.55969022  0.41586419  0.64226334    -0.59000
N1837       N  0.58864133  0.40274578  0.63358845    -0.07600
N1838       N  0.57484188  0.39171323  0.62406893    -0.61900
N1839       N  0.61086772  0.41471679  0.67746193    -0.06500
N1840       N  0.61226215  0.41292824  0.69712724    -0.59000
Mn1841     Mn  0.62305531  0.40141220  0.63397227     1.20200
Mn1842     Mn  0.59479676  0.43898088  0.66253146     1.10100
Cl1843     Cl  0.62286103  0.43996814  0.63629360    -0.87000
C1844       C  0.62490535  0.39720605  0.69987926     0.95300
C1845       C  0.55678487  0.40021313  0.62973393     0.95100
N1846       N  0.33929305  0.60442473  0.38317862    -0.07200
N1847       N  0.32472048  0.61641337  0.37615866    -0.59300
N1848       N  0.36322619  0.58895491  0.42496374    -0.06900
N1849       N  0.36393301  0.58946116  0.44483852    -0.61400
N1850       N  0.37235850  0.60470337  0.41700284    -0.06400
N1851       N  0.37953525  0.61625729  0.43172043    -0.59300
N1852       N  0.33128567  0.58847864  0.39188718    -0.06100
N1853       N  0.31142981  0.58932120  0.39119371    -0.61800
C1854       C  0.30742020  0.60671726  0.38136092     0.95000
C1855       C  0.37409248  0.60648217  0.44904159     0.94800
N1856       N  0.37972223  0.53022909  0.41140071    -0.07400
N1857       N  0.38884639  0.51713797  0.42340124    -0.59900
N1858       N  0.33591429  0.54110575  0.38832923    -0.05500
N1859       N  0.31691626  0.53522753  0.38702287    -0.61100
N1860       N  0.34769362  0.52893136  0.37786224    -0.07400
N1861       N  0.33705034  0.51473277  0.36902710    -0.60100
N1862       N  0.36794286  0.54235268  0.42189434    -0.05100
N1863       N  0.36872567  0.53777038  0.44127778    -0.61200
Mn1864     Mn  0.34915323  0.56524705  0.40702379     1.18400
C1865       C  0.38196371  0.52210648  0.44200217     0.97100
C1866       C  0.31786097  0.51886909  0.37472990     0.97800
N1867       N  0.40710668  0.60998866  0.38228549    -0.07400
N1868       N  0.42023457  0.62244715  0.39091618    -0.63700
N1869       N  0.38465016  0.59589574  0.33900586    -0.06200
N1870       N  0.38276046  0.59785022  0.31939751    -0.64400
N1871       N  0.37319155  0.60905039  0.34870092    -0.06900
N1872       N  0.36297514  0.62023020  0.33534578    -0.64000
N1873       N  0.41701869  0.59690596  0.37098259    -0.05800
N1874       N  0.43651212  0.60005579  0.37144402    -0.64700
Mn1875     Mn  0.37296091  0.60825207  0.38293987     1.10700
C1876       C  0.43855566  0.61593241  0.38377441     0.98300
C1877       C  0.36930606  0.61298328  0.31706523     0.98400
N1878       N  0.38083689  0.53404471  0.34536216    -0.06900
N1879       N  0.37361893  0.52117934  0.33210300    -0.62300
N1880       N  0.42189418  0.55073271  0.36909637    -0.06200
N1881       N  0.44178086  0.54951437  0.37034328    -0.59000
N1882       N  0.41342645  0.53564906  0.37869794    -0.07600
N1883       N  0.42733512  0.52388435  0.38689399    -0.61900
N1884       N  0.38937953  0.54930623  0.33614328    -0.06500
N1885       N  0.38847735  0.54706815  0.31635496    -0.59000
Mn1886     Mn  0.38055323  0.53163959  0.37834383     1.20200
Mn1887     Mn  0.40346136  0.57335016  0.35350395     1.10100
Cl1888     Cl  0.37649655  0.56973311  0.38049727    -0.87000
C1889       C  0.37840616  0.52953407  0.31410264     0.95300
C1890       C  0.44491435  0.53278686  0.38167320     0.95100
N1891       N  0.58807610  0.12885598  0.90762533    -0.07200
N1892       N  0.57412717  0.12150864  0.89527936    -0.59300
N1893       N  0.61101476  0.17101013  0.92319306    -0.06900
N1894       N  0.61209061  0.19079051  0.92240838    -0.61400
N1895       N  0.62113501  0.16251913  0.90828383    -0.06400
N1896       N  0.62946865  0.17682299  0.89697139    -0.59300
N1897       N  0.57915007  0.13866904  0.92246959    -0.06100
N1898       N  0.55942884  0.13843038  0.92063197    -0.61800
C1899       C  0.55633135  0.12777019  0.90372690     0.95000
C1900       C  0.62357712  0.19440633  0.90609549     0.94800
N1901       N  0.62131354  0.16000874  0.98367143    -0.07400
N1902       N  0.62921175  0.17278521  0.99671069    -0.59900
N1903       N  0.57913903  0.13693467  0.96903660    -0.05500
N1904       N  0.55950930  0.13607808  0.97224156    -0.61100
N1905       N  0.58907881  0.12662977  0.98283721    -0.07400
N1906       N  0.57638234  0.11839345  0.99574246    -0.60100
N1907       N  0.61116092  0.16986171  0.96972200    -0.05100
N1908       N  0.61174708  0.18946076  0.97290885    -0.61200
Mn1909     Mn  0.59486783  0.15433781  0.94603904     1.18400
C1910       C  0.62315465  0.19110652  0.98967981     0.97100
C1911       C  0.55799261  0.12431138  0.98882843     0.97800
N1912       N  0.65613040  0.12835987  0.90704432    -0.07400
N1913       N  0.66959582  0.13706714  0.89501268    -0.63700
N1914       N  0.63396933  0.08532734  0.92129503    -0.06200
N1915       N  0.63314370  0.06558751  0.91987388    -0.64400
N1916       N  0.62324999  0.09422609  0.90702865    -0.06900
N1917       N  0.61472332  0.08019259  0.89553188    -0.64000
N1918       N  0.66558840  0.11819217  0.92134959    -0.05800
N1919       N  0.68529753  0.11950625  0.91932621    -0.64700
Mn1920     Mn  0.62210085  0.12844689  0.90626264     1.10700
C1921       C  0.68776678  0.13126227  0.90292645     0.98300
C1922       C  0.62121036  0.06236706  0.90384206     0.98400
N1923       N  0.62334374  0.09362684  0.98198708    -0.06900
N1924       N  0.61541677  0.08038333  0.99453928    -0.62300
N1925       N  0.66562156  0.11784858  0.96838032    -0.06200
N1926       N  0.68522895  0.12026682  0.97094095    -0.59000
N1927       N  0.65537686  0.12734343  0.98252709    -0.07600
N1928       N  0.66774450  0.13668205  0.99490054    -0.61900
N1929       N  0.63375924  0.08432060  0.96784575    -0.06500
N1930       N  0.63323766  0.06457134  0.97047657    -0.59000
Mn1931     Mn  0.62228464  0.12679930  0.98350268     1.20200
Mn1932     Mn  0.65012038  0.10113817  0.94466563     1.10100
Cl1933     Cl  0.62232908  0.12765179  0.94501698    -0.87000
C1934       C  0.62160879  0.06230788  0.98709298     0.95300
C1935       C  0.68627343  0.13219893  0.98744562     0.95100
N1936       N  0.15560380  0.98119818  0.63068737    -0.07200
N1937       N  0.16781444  0.99397825  0.63957882    -0.59300
N1938       N  0.13227016  0.96610260  0.58824590    -0.06900
N1939       N  0.12878693  0.96774398  0.56866242    -0.61400
N1940       N  0.12233446  0.98015519  0.59817319    -0.06400
N1941       N  0.11171670  0.99153870  0.58576856    -0.59300
N1942       N  0.16590734  0.96729157  0.62090977    -0.06100
N1943       N  0.18555244  0.97047366  0.62274461    -0.61800
C1944       C  0.18642770  0.98711774  0.63462583     0.95000
C1945       C  0.11575117  0.98360379  0.56745347     0.94800
N1946       N  0.12314637  0.90505530  0.59908455    -0.07400
N1947       N  0.11481195  0.89281921  0.58555149    -0.59900
N1948       N  0.16569380  0.92020479  0.62210172    -0.05500
N1949       N  0.18545251  0.91842800  0.62305510    -0.61100
N1950       N  0.15674484  0.90601045  0.63276462    -0.07400
N1951       N  0.17073794  0.89422666  0.64130188    -0.60100
N1952       N  0.13329696  0.91925740  0.58961113    -0.05100
N1953       N  0.13219465  0.91701954  0.56991393    -0.61200
Mn1954     Mn  0.14973182  0.94317360  0.60481131     1.18400
C1955       C  0.12069133  0.90055801  0.56735891     0.97100
C1956       C  0.18860206  0.90226859  0.63498810     0.97800
N1957       N  0.08985586  0.98165516  0.63064267    -0.07400
N1958       N  0.07773200  0.99296642  0.61955315    -0.63700
N1959       N  0.11287183  0.96898154  0.67427404    -0.06200
N1960       N  0.11652370  0.97134258  0.69374636    -0.64400
N1961       N  0.12302004  0.98221398  0.66365664    -0.06900
N1962       N  0.13390770  0.99377014  0.67550459    -0.64000
N1963       N  0.07953423  0.96833362  0.64094723    -0.05800
N1964       N  0.05999074  0.97039619  0.63723334    -0.64700
Mn1965     Mn  0.12271873  0.98190274  0.63084504     1.10700
C1966       C  0.05917144  0.98576839  0.62371744     0.98300
C1967       C  0.12977326  0.98681984  0.69421029     0.98400
N1968       N  0.12148534  0.90706064  0.66753578    -0.06900
N1969       N  0.12842083  0.89481160  0.68196567    -0.62300
N1970       N  0.07927612  0.92151396  0.64337306    -0.06200
N1971       N  0.05950538  0.91970518  0.64274453    -0.59000
N1972       N  0.08832971  0.90647026  0.63385765    -0.07600
N1973       N  0.07447707  0.89406167  0.62648000    -0.61900
N1974       N  0.11159663  0.92226695  0.67590214    -0.06500
N1975       N  0.11167305  0.92084971  0.69569024    -0.59000
Mn1976     Mn  0.12248895  0.90490483  0.63334888     1.20200
Mn1977     Mn  0.09541422  0.94536315  0.65901027     1.10100
Cl1978     Cl  0.12265744  0.94349074  0.63205632    -0.87000
C1979       C  0.12216972  0.90379061  0.69948686     0.95300
C1980       C  0.05652702  0.90261629  0.63221043     0.95100
N1981       N  0.11555047  0.66367002  0.97951283    -0.07200
N1982       N  0.12297832  0.67636398  0.99284217    -0.59300
N1983       N  0.07458873  0.64043091  0.96236191    -0.06900
N1984       N  0.05476931  0.63921866  0.96392375    -0.61400
N1985       N  0.08352597  0.63012215  0.97681636    -0.06400
N1986       N  0.06998793  0.62150664  0.98850904    -0.59300
N1987       N  0.10659672  0.67359542  0.96480584    -0.06100
N1988       N  0.10748207  0.69328090  0.96789717    -0.61800
C1989       C  0.11791843  0.69476970  0.98537942     0.95000
C1990       C  0.05214392  0.62718505  0.98017287     0.94800
N1991       N  0.08797955  0.62995487  0.90242022    -0.07400
N1992       N  0.07481606  0.62077386  0.89040193    -0.59900
N1993       N  0.10984675  0.67312511  0.91800137    -0.05500
N1994       N  0.11114762  0.69285214  0.91665185    -0.61100
N1995       N  0.12095998  0.66409562  0.90413613    -0.07400
N1996       N  0.13028464  0.67795746  0.89305334    -0.60100
N1997       N  0.07809919  0.64048640  0.91614548    -0.05100
N1998       N  0.05851543  0.63891340  0.91384728    -0.61200
Mn1999     Mn  0.09201131  0.65729818  0.94019348     1.18400
C2000       C  0.05645177  0.62671835  0.89782940     0.97100
C2001       C  0.12385227  0.69585298  0.90112164     0.97800
N2002       N  0.11787066  0.59717109  0.97959416    -0.07400
N2003       N  0.10981944  0.58393668  0.99213272    -0.63700
N2004       N  0.16073591  0.62165764  0.96859985    -0.06200
N2005       N  0.18005647  0.62448146  0.97249491    -0.64400
N2006       N  0.14939827  0.63128322  0.98178993    -0.06900
N2007       N  0.16068930  0.64108883  0.99482446    -0.64000
N2008       N  0.12929945  0.58785137  0.96626906    -0.05800
N2009       N  0.12929169  0.56820650  0.96932676    -0.64700
Mn2010     Mn  0.11645458  0.63046247  0.98016479     1.10700
C2011       C  0.11698846  0.56589509  0.98538761     0.98300
C2012       C  0.17975932  0.63676233  0.98879877     0.98400
N2013       N  0.15593109  0.63014392  0.90639106    -0.06900
N2014       N  0.17034561  0.63802194  0.89490316    -0.62300
N2015       N  0.13304708  0.58732146  0.91989726    -0.06200
N2016       N  0.13266989  0.56751084  0.91850962    -0.59000
N2017       N  0.12338176  0.59590998  0.90473236    -0.07600
N2018       N  0.11605162  0.58168822  0.89267200    -0.61900
N2019       N  0.16421379  0.62070274  0.92184752    -0.06500
N2020       N  0.18400303  0.62181029  0.92128084    -0.59000
Mn2021     Mn  0.12205824  0.63000549  0.90317185     1.20200
Mn2022     Mn  0.14717810  0.60413282  0.94415948     1.10100
Cl2023     Cl  0.11942804  0.63046142  0.94182339    -0.87000
C2024       C  0.18780480  0.63261086  0.90452509     0.95300
C2025       C  0.12211005  0.56400683  0.90154053     0.95100
N2026       N  0.89791653  0.59382505  0.13428462    -0.07200
N2027       N  0.88536279  0.58042479  0.12631644    -0.59300
N2028       N  0.91404352  0.61671399  0.17660440    -0.06900
N2029       N  0.91215178  0.61667094  0.19628696    -0.61400
N2030       N  0.89925387  0.62691582  0.16788426    -0.06400
N2031       N  0.88684460  0.63413567  0.18201745    -0.59300
N2032       N  0.91194414  0.58426877  0.14480347    -0.06100
N2033       N  0.90928666  0.56461677  0.14436742    -0.61800
C2034       C  0.89273394  0.56223512  0.13288084     0.95000
C2035       C  0.89528810  0.62753542  0.19968213     0.94800
N2036       N  0.97527575  0.62366560  0.16483739    -0.07400
N2037       N  0.98859884  0.63279104  0.17621413    -0.59900
N2038       N  0.95818518  0.58186658  0.14319207    -0.05500
N2039       N  0.95982558  0.56207491  0.14174639    -0.61100
N2040       N  0.97203130  0.59077276  0.13228264    -0.07400
N2041       N  0.98347718  0.57727168  0.12308627    -0.60100
N2042       N  0.96132272  0.61505206  0.17587790    -0.05100
N2043       N  0.96510100  0.61790939  0.19531045    -0.61200
Mn2044     Mn  0.93636428  0.59925682  0.16057780     1.18400
C2045       C  0.98214222  0.62920863  0.19514804     0.97100
C2046       C  0.97555722  0.55944533  0.12899873     0.97800
N2047       N  0.90050033  0.66195430  0.13369472    -0.07400
N2048       N  0.88855330  0.67590885  0.14193316    -0.63700
N2049       N  0.91397479  0.63923408  0.09076138    -0.06200
N2050       N  0.91281387  0.63818967  0.07099369    -0.64400
N2051       N  0.89934200  0.62901965  0.09946677    -0.06900
N2052       N  0.88784161  0.62072530  0.08526765    -0.64000
N2053       N  0.91541827  0.67080498  0.12398421    -0.05800
N2054       N  0.91384501  0.69060713  0.12518552    -0.64700
Mn2055     Mn  0.89803767  0.62797242  0.13371803     1.10700
C2056       C  0.89711398  0.69372043  0.13640152     0.98300
C2057       C  0.89654976  0.62671285  0.06753742     0.98400
N2058       N  0.97316387  0.62407572  0.09960851    -0.06900
N2059       N  0.98437308  0.61371493  0.08685428    -0.62300
N2060       N  0.96321685  0.66797781  0.12373009    -0.06200
N2061       N  0.96798048  0.68717492  0.12645150    -0.59000
N2062       N  0.97653082  0.65618935  0.13266520    -0.07600
N2063       N  0.99038212  0.66685637  0.14187091    -0.61900
N2064       N  0.96027812  0.63577154  0.08998125    -0.06500
N2065       N  0.96248428  0.63368027  0.07026540    -0.59000
Mn2066     Mn  0.97478221  0.62351967  0.13221395     1.20200
Mn2067     Mn  0.93817183  0.65407354  0.10683600     1.10100
Cl2068     Cl  0.93665463  0.62627763  0.13337008    -0.87000
C2069       C  0.97748978  0.61971892  0.06862839     0.95300
C2070       C  0.98492164  0.68611398  0.13800053     0.95100
N2071       N  0.89656831  0.16323747  0.63293037    -0.07200
N2072       N  0.88432231  0.17767409  0.63993495    -0.59300
N2073       N  0.91147784  0.14075611  0.59036379    -0.06900
N2074       N  0.91049716  0.14058988  0.57053594    -0.61400
N2075       N  0.89615917  0.13102738  0.59842395    -0.06400
N2076       N  0.88444924  0.12387612  0.58386068    -0.59300
N2077       N  0.91229866  0.17159617  0.62413504    -0.06100
N2078       N  0.91111427  0.19142142  0.62484984    -0.61800
C2079       C  0.89371778  0.19521119  0.63471812     0.95000
C2080       C  0.89365006  0.13009485  0.56654355     0.94800
N2081       N  0.97085945  0.12487759  0.60164864    -0.07400
N2082       N  0.98369785  0.11616022  0.58912359    -0.59900
N2083       N  0.95957329  0.16765162  0.62660920    -0.05500
N2084       N  0.96430352  0.18679713  0.62945992    -0.61100
N2085       N  0.97228867  0.15578420  0.63631263    -0.07400
N2086       N  0.98579480  0.16648707  0.64611313    -0.60100
N2087       N  0.95821654  0.13663882  0.59176947    -0.05100
N2088       N  0.96218364  0.13621089  0.57222128    -0.61200
Mn2089     Mn  0.93538864  0.15458370  0.60796040     1.18400
C2090       C  0.97805050  0.12322737  0.57079115     0.97100
C2091       C  0.98061669  0.18580716  0.64181477     0.97800
N2092       N  0.89239104  0.09479758  0.63144568    -0.07400
N2093       N  0.88033317  0.08178055  0.62204147    -0.63700
N2094       N  0.90699022  0.11587666  0.67545959    -0.06200
N2095       N  0.90476899  0.11639141  0.69515093    -0.64400
N2096       N  0.89340598  0.12736275  0.66635629    -0.06900
N2097       N  0.88165522  0.13615449  0.68014458    -0.64000
N2098       N  0.90580595  0.08464246  0.64217651    -0.05800
N2099       N  0.90319125  0.06508307  0.64061216    -0.64700
Mn2100     Mn  0.89343494  0.12915568  0.63224611     1.10700
C2101       C  0.88734529  0.06323503  0.62813606     0.98300
C2102       C  0.88899832  0.12899589  0.69805825     0.98400
N2103       N  0.96880048  0.12133575  0.66744464    -0.06900
N2104       N  0.98200679  0.12844135  0.68038928    -0.62300
N2105       N  0.95214377  0.08094743  0.64243463    -0.06200
N2106       N  0.95327549  0.06122992  0.63965864    -0.59000
N2107       N  0.96683454  0.09008383  0.63284833    -0.07600
N2108       N  0.97825249  0.07682406  0.62321671    -0.61900
N2109       N  0.95401816  0.11227803  0.67694878    -0.06500
N2110       N  0.95698452  0.11279220  0.69669750    -0.59000
Mn2111     Mn  0.97028807  0.12290754  0.63455602     1.20200
Mn2112     Mn  0.92965392  0.09817621  0.65965656     1.10100
Cl2113     Cl  0.93205273  0.12627755  0.63362304    -0.87000
C2114       C  0.97446181  0.12313698  0.69857517     0.95300
C2115       C  0.96953699  0.05889728  0.62747877     0.95100
N2116       N  0.59453977  0.97674064  0.13717334    -0.07200
N2117       N  0.58349270  0.99001136  0.12720678    -0.59300
N2118       N  0.61541217  0.95984361  0.17958200    -0.06900
N2119       N  0.61574561  0.96307566  0.19924661    -0.61400
N2120       N  0.62712663  0.97271248  0.17018476    -0.06400
N2121       N  0.63567419  0.98499688  0.18319174    -0.59300
N2122       N  0.58303527  0.96336951  0.14609461    -0.06100
N2123       N  0.56374794  0.96745133  0.14261010    -0.61800
C2124       C  0.56435736  0.98406639  0.13063801     0.95000
C2125       C  0.62861304  0.97870704  0.20128758     0.94800
N2126       N  0.62171397  0.89862754  0.16933841    -0.07400
N2127       N  0.62968765  0.88635367  0.18322336    -0.59900
N2128       N  0.57950086  0.91626750  0.14590832    -0.05500
N2129       N  0.55964181  0.91566648  0.14490155    -0.61100
N2130       N  0.58781667  0.90107454  0.13600980    -0.07400
N2131       N  0.57339103  0.88980028  0.12795040    -0.60100
N2132       N  0.61184439  0.91341992  0.17843190    -0.05100
N2133       N  0.61273363  0.91158268  0.19816587    -0.61200
Mn2134     Mn  0.59699268  0.93821088  0.16278192     1.18400
C2135       C  0.62379460  0.89472803  0.20117314     0.97100
C2136       C  0.55586043  0.89918044  0.13367221     0.97800
N2137       N  0.66045630  0.97138276  0.13602285    -0.07400
N2138       N  0.67436416  0.98351811  0.14332892    -0.63700
N2139       N  0.63447876  0.96160643  0.09310477    -0.06200
N2140       N  0.63124257  0.96587606  0.07381313    -0.64400
N2141       N  0.62650640  0.97570475  0.10459070    -0.06900
N2142       N  0.61740725  0.98960783  0.09364618    -0.64000
N2143       N  0.66883226  0.95749788  0.12451664    -0.05800
N2144       N  0.68861913  0.95984060  0.12376616    -0.64700
Mn2145     Mn  0.62740152  0.97463028  0.13727614     1.10700
C2146       C  0.69191080  0.97602710  0.13573111     0.98300
C2147       C  0.62035894  0.98336508  0.07452620     0.98400
N2148       N  0.62149413  0.89979127  0.10088129    -0.06900
N2149       N  0.61216503  0.88865262  0.08706213    -0.62300
N2150       N  0.66539288  0.91104749  0.12284884    -0.06200
N2151       N  0.68508003  0.90847451  0.12321698    -0.59000
N2152       N  0.65616680  0.89704826  0.13350325    -0.07600
N2153       N  0.66994256  0.88455205  0.14144216    -0.61900
N2154       N  0.63178330  0.91415338  0.09181828    -0.06500
N2155       N  0.62989614  0.91304834  0.07211103    -0.59000
Mn2156     Mn  0.62186711  0.89789235  0.13501923     1.20200
Mn2157     Mn  0.65033261  0.93595300  0.10761222     1.10100
Cl2158     Cl  0.62420688  0.93650441  0.13572458    -0.87000
C2159       C  0.61767435  0.89719953  0.06913427     0.95300
C2160       C  0.68796486  0.89198491  0.13472609     0.95100
C2161       C  0.03262979  0.62384843  0.99001906    -0.06300
C2162       C  0.01668817  0.63777066  0.98747117    -0.06200
C2163       C  0.00035074  0.63777886  0.00083378    -0.24400
C2164       C  0.99995264  0.62393610  0.01686754     0.17800
C2165       C  0.01502621  0.60867137  0.01816187     0.15000
C2166       C  0.03108895  0.60855701  0.00451565    -0.19400
C2167       C  0.01488714  0.59493166  0.03420557    -0.21200
C2168       C  0.00130109  0.59762395  0.05000656    -0.13800
C2169       C  0.98751715  0.61387635  0.04977145     0.02900
C2170       C  0.98595340  0.62620271  0.03259392    -0.25900
H2171       H  0.01758673  0.64957858  0.97617967     0.07900
H2172       H  0.98881610  0.64942890  0.99946265     0.11500
H2173       H  0.04327321  0.59761021  0.00627642     0.11500
H2174       H  0.02617545  0.58299783  0.03524498     0.11200
H2175       H  0.00242643  0.58772797  0.06301043     0.11800
H2176       H  0.97524236  0.63869752  0.03233211     0.13700
C2177       C  0.04053407  0.99534028  0.61610533    -0.06300
C2178       C  0.04179341  0.00954998  0.60038632    -0.06200
C2179       C  0.02580171  0.02285169  0.59663512    -0.24400
C2180       C  0.00854848  0.02230419  0.60884388     0.17800
C2181       C  0.00623275  0.00655395  0.62311591     0.15000
C2182       C  0.02216778  0.99282264  0.62636434    -0.19400
C2183       C  0.98896867  0.00615863  0.63538386    -0.21200
C2184       C  0.97551858  0.02254335  0.63534566    -0.13800
C2185       C  0.97917744  0.03933444  0.62293204     0.02900
C2186       C  0.99475601  0.03843380  0.60860057    -0.25900
H2187       H  0.05567299  0.01130882  0.59190680     0.07900
H2188       H  0.02761898  0.03456547  0.58534215     0.11500
H2189       H  0.02103346  0.98167824  0.63832132     0.11500
H2190       H  0.98675318  0.99403035  0.64615137     0.11200
H2191       H  0.96332868  0.02282912  0.64626743     0.11800
H2192       H  0.99736381  0.05121707  0.59869620     0.13700
C2193       C  0.61909673  0.04301393  0.99787226    -0.06300
C2194       C  0.63134863  0.02622801  0.99308836    -0.06200
C2195       C  0.63215173  0.00949604  0.00597940    -0.24400
C2196       C  0.62078189  0.00941168  0.02384554     0.17800
C2197       C  0.60720091  0.02558531  0.02781576     0.15000
C2198       C  0.60625686  0.04212296  0.01467056    -0.19400
C2199       C  0.59589215  0.02572158  0.04564724    -0.21200
C2200       C  0.59931010  0.01095294  0.06024438    -0.13800
C2201       C  0.61386952  0.99566030  0.05714077     0.02900
C2202       C  0.62381500  0.99429222  0.03847707    -0.25900
H2203       H  0.64121074  0.02651928  0.98003543     0.07900
H2204       H  0.64247127  0.99716098  0.00254279     0.11500
H2205       H  0.59654467  0.05490661  0.01829076     0.11500
H2206       H  0.58525953  0.03786769  0.04881449     0.11200
H2207       H  0.59123593  0.01208011  0.07443276     0.11800
H2208       H  0.63503806  0.98250860  0.03600472     0.13700
C2209       C  0.38496393  0.61875837  0.54702955    -0.06300
C2210       C  0.37112235  0.60323371  0.54339365    -0.06200
C2211       C  0.36601001  0.59788943  0.52347144    -0.24400
C2212       C  0.37453895  0.60808184  0.50684324     0.17800
C2213       C  0.38807275  0.62400827  0.51037343     0.15000
C2214       C  0.39316859  0.62917639  0.53030840    -0.19400
C2215       C  0.39651960  0.63438674  0.49389940    -0.21200
C2216       C  0.39178222  0.62893804  0.47401967    -0.13800
C2217       C  0.37860242  0.61292054  0.47016361     0.02900
C2218       C  0.36995449  0.60258135  0.48677238    -0.25900
H2219       H  0.36466247  0.59492413  0.55588951     0.07900
H2220       H  0.35554374  0.58563776  0.52106160     0.11500
H2221       H  0.40378823  0.64129827  0.53276735     0.11500
H2222       H  0.40692734  0.64667805  0.49639506     0.11200
H2223       H  0.39865879  0.63709540  0.46164412     0.11800
H2224       H  0.35969909  0.59019842  0.48410921     0.13700
C2225       C  0.48350169  0.54193631  0.63072123    -0.06300
C2226       C  0.47900348  0.52553466  0.64339455    -0.06200
C2227       C  0.49153493  0.50844425  0.64358123    -0.24400
C2228       C  0.50872266  0.50774953  0.63121559     0.17800
C2229       C  0.51200064  0.52337309  0.61698460     0.15000
C2230       C  0.49914082  0.54018832  0.61659915    -0.19400
C2231       C  0.52919982  0.52294884  0.60473427    -0.21200
C2232       C  0.54418724  0.50851925  0.60817247    -0.13800
C2233       C  0.54197167  0.49415964  0.62362285     0.02900
C2234       C  0.52365033  0.49287661  0.63416128    -0.25900
H2235       H  0.46670876  0.52649945  0.65416276     0.07900
H2236       H  0.48859862  0.49648859  0.65435642     0.11500
H2237       H  0.50238776  0.55267360  0.60651451     0.11500
H2238       H  0.53176794  0.53464084  0.59357159     0.11200
H2239       H  0.55811767  0.50941790  0.59961838     0.11800
H2240       H  0.52189435  0.48173038  0.64603148     0.13700
C2241       C  0.53599794  0.39399962  0.62366910    -0.06300
C2242       C  0.53247044  0.37738263  0.61105551    -0.06200
C2243       C  0.51260710  0.37195131  0.60595919    -0.24400
C2244       C  0.49590418  0.38298263  0.61346589     0.17800
C2245       C  0.49926130  0.39969579  0.62614528     0.15000
C2246       C  0.51917223  0.40511914  0.63103728    -0.19400
C2247       C  0.48263789  0.41065360  0.63384751    -0.21200
C2248       C  0.46279476  0.40502483  0.62915076    -0.13800
C2249       C  0.45918515  0.38851225  0.61644235     0.02900
C2250       C  0.47591921  0.37760455  0.60857881    -0.25900
H2251       H  0.54503127  0.36857497  0.60519321     0.07900
H2252       H  0.51029877  0.35904585  0.59621507     0.11500
H2253       H  0.52150442  0.41803375  0.64077427     0.11500
H2254       H  0.48498812  0.42357952  0.64355604     0.11200
H2255       H  0.45028150  0.41378889  0.63518233     0.11800
H2256       H  0.47339890  0.36481554  0.59872421     0.13700
C2257       C  0.37492586  0.46665289  0.52164094    -0.06300
C2258       C  0.36251571  0.48374838  0.52439022    -0.06200
C2259       C  0.36308433  0.49964822  0.51043354    -0.24400
C2260       C  0.37592410  0.49843323  0.49356190     0.17800
C2261       C  0.38953517  0.48194203  0.49176323     0.15000
C2262       C  0.38920285  0.46642413  0.50601526    -0.19400
C2263       C  0.40222421  0.48038594  0.47492655    -0.21200
C2264       C  0.40041817  0.49421099  0.45918482    -0.13800
C2265       C  0.38610860  0.50995353  0.46017179     0.02900
C2266       C  0.37449616  0.51257193  0.47780153    -0.25900
H2267       H  0.35150432  0.48422679  0.53648452     0.07900
H2268       H  0.35269431  0.51227846  0.51219138     0.11500
H2269       H  0.39905248  0.45337158  0.50402845     0.11500
H2270       H  0.41282213  0.46787764  0.47345176     0.11200
H2271       H  0.40967894  0.49208381  0.44585183     0.11800
H2272       H  0.36345854  0.52475069  0.47869958     0.13700
C2273       C  0.37951576  0.46612547  0.62399465    -0.06300
C2274       C  0.39488826  0.46934000  0.63816280    -0.06200
C2275       C  0.40016674  0.48909576  0.64357988    -0.24400
C2276       C  0.39010647  0.50582238  0.63489607     0.17800
C2277       C  0.37445477  0.50264753  0.62087079     0.15000
C2278       C  0.36927847  0.48292566  0.61560105    -0.19400
C2279       C  0.36435391  0.51924380  0.61211520    -0.21200
C2280       C  0.36986114  0.53897023  0.61704640    -0.13800
C2281       C  0.38554098  0.54237261  0.63079244     0.02900
C2282       C  0.39552340  0.52566595  0.63978226    -0.25900
H2283       H  0.40299354  0.45666902  0.64474944     0.07900
H2284       H  0.41223299  0.49130467  0.65438638     0.11500
H2285       H  0.35729481  0.48072588  0.60468321     0.11500
H2286       H  0.35229843  0.51695600  0.60130409     0.11200
H2287       H  0.36203198  0.55153979  0.60994463     0.11800
H2288       H  0.40768047  0.52805923  0.65045506     0.13700
C2289       C  0.62768736  0.48852419  0.72329509    -0.06300
C2290       C  0.61484648  0.48470059  0.73973713    -0.06200
C2291       C  0.61534229  0.49706872  0.75683952    -0.24400
C2292       C  0.62862468  0.51345038  0.75763500     0.17800
C2293       C  0.64280061  0.51619572  0.74187698     0.15000
C2294       C  0.64238643  0.50357131  0.72494261    -0.19400
C2295       C  0.65604579  0.53254344  0.74249516    -0.21200
C2296       C  0.65385549  0.54721976  0.75741148    -0.13800
C2297       C  0.63861679  0.54561070  0.77210182     0.02900
C2298       C  0.62686548  0.52806051  0.77293513    -0.25900
H2299       H  0.60355972  0.47298722  0.73885834     0.07900
H2300       H  0.60453898  0.49455409  0.76887415     0.11500
H2301       H  0.65257493  0.50638837  0.71242824     0.11500
H2302       H  0.66719937  0.53469466  0.73070576     0.11200
H2303       H  0.66331289  0.56048025  0.75673393     0.11800
H2304       H  0.61512692  0.52669270  0.78427911     0.13700
C2305       C  0.54119514  0.62543316  0.77107224    -0.06300
C2306       C  0.52570256  0.61135243  0.77410754    -0.06200
C2307       C  0.50878268  0.61134928  0.76148137    -0.24400
C2308       C  0.50719584  0.62545302  0.74572962     0.17800
C2309       C  0.52224564  0.64036723  0.74346835     0.15000
C2310       C  0.53905120  0.64029676  0.75619822    -0.19400
C2311       C  0.52089388  0.65442513  0.72775838    -0.21200
C2312       C  0.50567983  0.65277405  0.71341561    -0.13800
C2313       C  0.49144217  0.63724130  0.71473113     0.02900
C2314       C  0.49161050  0.62417393  0.73143934    -0.25900
H2315       H  0.52709489  0.59980177  0.78562484     0.07900
H2316       H  0.49738281  0.59987002  0.76353366     0.11500
H2317       H  0.55089606  0.65132141  0.75397682     0.11500
H2318       H  0.53220407  0.66605250  0.72596119     0.11200
H2319       H  0.50562437  0.66307847  0.70068576     0.11800
H2320       H  0.48069077  0.61209200  0.73243354     0.13700
C2321       C  0.30099450  0.50494351  0.37101278    -0.06300
C2322       C  0.30303650  0.48959317  0.35648046    -0.06200
C2323       C  0.28883382  0.47416110  0.35526460    -0.24400
C2324       C  0.27253883  0.47369298  0.36877718     0.17800
C2325       C  0.26977269  0.48969247  0.38268963     0.15000
C2326       C  0.28387792  0.50535969  0.38352558    -0.19400
C2327       C  0.25353024  0.48920698  0.39625376    -0.21200
C2328       C  0.24071642  0.47257921  0.39671962    -0.13800
C2329       C  0.24397588  0.45615242  0.38367861     0.02900
C2330       C  0.25956443  0.45704860  0.36931231    -0.25900
H2331       H  0.31602932  0.48911922  0.34653505     0.07900
H2332       H  0.29106880  0.46215911  0.34434477     0.11500
H2333       H  0.28219710  0.51713843  0.39479038     0.11500
H2334       H  0.25114725  0.50136327  0.40697612     0.11200
H2335       H  0.22875677  0.47220970  0.40788099     0.11800
H2336       H  0.26204759  0.44449185  0.35906848     0.13700
C2337       C  0.23856462  0.35991599  0.46654580    -0.06300
C2338       C  0.25411166  0.34537168  0.46535153    -0.06200
C2339       C  0.26862440  0.34397153  0.48053005    -0.24400
C2340       C  0.26792412  0.35737171  0.49685585     0.17800
C2341       C  0.25122180  0.37066845  0.49915595     0.15000
C2342       C  0.23633264  0.37151081  0.48414190    -0.19400
C2343       C  0.25072033  0.38422994  0.51540487    -0.21200
C2344       C  0.26751842  0.38601324  0.52802629    -0.13800
C2345       C  0.28485323  0.37413624  0.52457755     0.02900
C2346       C  0.28449993  0.35900177  0.50979294    -0.25900
H2347       H  0.25583257  0.33601692  0.45204345     0.07900
H2348       H  0.28116800  0.33347761  0.47873519     0.11500
H2349       H  0.22425806  0.38265162  0.48520622     0.11500
H2350       H  0.23794458  0.39437437  0.51751843     0.11200
H2351       H  0.26747225  0.39762277  0.53953740     0.11800
H2352       H  0.29776344  0.34956424  0.50731863     0.13700
C2353       C  0.49203597  0.70868965  0.63241372    -0.06300
C2354       C  0.48840681  0.72532002  0.61965156    -0.06200
C2355       C  0.50165619  0.74168510  0.61951623    -0.24400
C2356       C  0.51868746  0.74159528  0.63213701     0.17800
C2357       C  0.52173169  0.72534665  0.64574143     0.15000
C2358       C  0.50834945  0.70913040  0.64586711    -0.19400
C2359       C  0.53864455  0.72506931  0.65838207    -0.21200
C2360       C  0.55308382  0.74013362  0.65679547    -0.13800
C2361       C  0.55081555  0.75581958  0.64264004     0.02900
C2362       C  0.53321732  0.75689801  0.63078992    -0.25900
H2363       H  0.47582140  0.72530747  0.60921248     0.07900
H2364       H  0.49896702  0.75404822  0.60907997     0.11500
H2365       H  0.51112731  0.69643563  0.65591153     0.11500
H2366       H  0.54108930  0.71279610  0.66899959     0.11200
H2367       H  0.56642060  0.73911320  0.66623162     0.11800
H2368       H  0.53134583  0.76896921  0.61984406     0.13700
C2369       C  0.62359692  0.76875188  0.72221703    -0.06300
C2370       C  0.63571835  0.77240501  0.73921762    -0.06200
C2371       C  0.63555175  0.75899829  0.75563238    -0.24400
C2372       C  0.62329668  0.74177312  0.75518710     0.17800
C2373       C  0.60992996  0.73902291  0.73877239     0.15000
C2374       C  0.61002220  0.75261278  0.72257480    -0.19400
C2375       C  0.59764289  0.72196141  0.73808915    -0.21200
C2376       C  0.59969474  0.70689390  0.75264200    -0.13800
C2377       C  0.61389645  0.70867469  0.76828611     0.02900
C2378       C  0.62504101  0.72661271  0.77006552    -0.25900
H2379       H  0.64617667  0.78489178  0.73930865     0.07900
H2380       H  0.64573281  0.76154669  0.76817072     0.11500
H2381       H  0.60038658  0.74987373  0.70962584     0.11500
H2382       H  0.58715291  0.71977077  0.72572285     0.11200
H2383       H  0.59071763  0.69337350  0.75114254     0.11800
H2384       H  0.63599562  0.72815543  0.78212382     0.13700
C2385       C  0.29694835  0.24604399  0.39538592    -0.06300
C2386       C  0.29782997  0.26026375  0.41102196    -0.06200
C2387       C  0.28174083  0.27353600  0.41429071    -0.24400
C2388       C  0.26489417  0.27309367  0.40153617     0.17800
C2389       C  0.26323638  0.25784703  0.38669785     0.15000
C2390       C  0.27914628  0.24402397  0.38406533    -0.19400
C2391       C  0.24657582  0.25787188  0.37359495    -0.21200
C2392       C  0.23286580  0.27405494  0.37382449    -0.13800
C2393       C  0.23559921  0.29008932  0.38738188     0.02900
C2394       C  0.25074084  0.28880459  0.40209238    -0.25900
H2395       H  0.31135403  0.26173484  0.42010104     0.07900
H2396       H  0.28309216  0.28503206  0.42584897     0.11500
H2397       H  0.27841867  0.23298712  0.37200136     0.11500
H2398       H  0.24497211  0.24620222  0.36225763     0.11200
H2399       H  0.22109096  0.27473608  0.36249076     0.11800
H2400       H  0.25265757  0.30103673  0.41280543     0.13700
C2401       C  0.36082964  0.30256316  0.51406850    -0.06300
C2402       C  0.34534579  0.30339539  0.49957429    -0.06200
C2403       C  0.34426292  0.28879474  0.48445798    -0.24400
C2404       C  0.35887377  0.27338713  0.48345646     0.17800
C2405       C  0.37357376  0.27158563  0.49889479     0.15000
C2406       C  0.37422379  0.28602025  0.51433341    -0.19400
C2407       C  0.38822159  0.25620211  0.49785073    -0.21200
C2408       C  0.38907987  0.24351489  0.48105293    -0.13800
C2409       C  0.37535574  0.24610369  0.46506998     0.02900
C2410       C  0.35983630  0.26057667  0.46666090    -0.25900
H2411       H  0.33468851  0.31590974  0.49933916     0.07900
H2412       H  0.33269850  0.29020871  0.47292997     0.11500
H2413       H  0.38618508  0.28527887  0.52551851     0.11500
H2414       H  0.39954046  0.25454258  0.50958596     0.11200
H2415       H  0.40111537  0.23235996  0.48009684     0.11800
H2416       H  0.34906510  0.26244330  0.45442903     0.13700
C2417       C  0.37598091  0.13955372  0.29692788    -0.06300
C2418       C  0.38705921  0.12188402  0.29286620    -0.06200
C2419       C  0.39033010  0.11574612  0.27286535    -0.24400
C2420       C  0.38266456  0.12726437  0.25665051     0.17800
C2421       C  0.37106673  0.14476657  0.26052913     0.15000
C2422       C  0.36772471  0.15071129  0.28059628    -0.19400
C2423       C  0.36349975  0.15631746  0.24426120    -0.21200
C2424       C  0.36813925  0.15101199  0.22425106    -0.13800
C2425       C  0.38033621  0.13405960  0.22028990     0.02900
C2426       C  0.38701822  0.12195508  0.23662681    -0.25900
H2427       H  0.39343396  0.11301844  0.30509599     0.07900
H2428       H  0.39921827  0.10221162  0.27005749     0.11500
H2429       H  0.35901393  0.16435874  0.28342375     0.11500
H2430       H  0.35449964  0.16978311  0.24704179     0.11200
H2431       H  0.36290509  0.16056276  0.21199899     0.11800
H2432       H  0.39630504  0.10867969  0.23381929     0.13700
C2433       C  0.48675074  0.04215663  0.13302475    -0.06300
C2434       C  0.48214173  0.02454300  0.14384968    -0.06200
C2435       C  0.49514440  0.00779969  0.14306734    -0.24400
C2436       C  0.51296754  0.00864097  0.13163304     0.17800
C2437       C  0.51667833  0.02570546  0.11933361     0.15000
C2438       C  0.50338129  0.04220253  0.11988569    -0.19400
C2439       C  0.53449529  0.02675325  0.10800816    -0.21200
C2440       C  0.54948652  0.01208367  0.11052750    -0.13800
C2441       C  0.54671643  0.99606012  0.12416601     0.02900
C2442       C  0.52792680  0.99363401  0.13364685    -0.25900
H2443       H  0.46919679  0.02415085  0.15385735     0.07900
H2444       H  0.49191980  0.99473391  0.15237163     0.11500
H2445       H  0.50682367  0.05565133  0.11120801     0.11500
H2446       H  0.53741345  0.03958364  0.09827959     0.11200
H2447       H  0.56373583  0.01396321  0.10272702     0.11800
H2448       H  0.52564735  0.98116600  0.14401755     0.13700
C2449       C  0.49222713  0.11166648  0.05876301    -0.06300
C2450       C  0.50765002  0.09713308  0.06106836    -0.06200
C2451       C  0.52241068  0.09479835  0.04625234    -0.24400
C2452       C  0.52205118  0.10718659  0.02912009     0.17800
C2453       C  0.50561612  0.12065189  0.02591869     0.15000
C2454       C  0.49053143  0.12250436  0.04063557    -0.19400
C2455       C  0.50541095  0.13316757  0.00884790    -0.21200
C2456       C  0.52207310  0.13347005  0.99593120    -0.13800
C2457       C  0.53904556  0.12118024  0.99990499     0.02900
C2458       C  0.53855831  0.10740557  0.01596047    -0.25900
H2459       H  0.50896254  0.08838715  0.07484769     0.07900
H2460       H  0.53475794  0.08421253  0.04878587     0.11500
H2461       H  0.47856215  0.13365859  0.03875301     0.11500
H2462       H  0.49288104  0.14346983  0.00608516     0.11200
H2463       H  0.52211901  0.14410566  0.98349634     0.11800
H2464       H  0.55154877  0.09772901  0.01894272     0.13700
C2465       C  0.35376957  0.62423995  0.22007260    -0.06300
C2466       C  0.37024858  0.61124562  0.22357297    -0.06200
C2467       C  0.37650462  0.60690593  0.24329332    -0.24400
C2468       C  0.36645306  0.61555658  0.25990695     0.17800
C2469       C  0.34993833  0.62876869  0.25672885     0.15000
C2470       C  0.34366547  0.63299864  0.23681545    -0.19400
C2471       C  0.34001873  0.63738637  0.27354063    -0.21200
C2472       C  0.34632939  0.63276059  0.29332265    -0.13800
C2473       C  0.36262208  0.61942508  0.29656237     0.02900
C2474       C  0.37263233  0.61104356  0.27965026    -0.25900
H2475       H  0.37822977  0.60431786  0.21105097     0.07900
H2476       H  0.38921500  0.59670795  0.24556040     0.11500
H2477       H  0.33091739  0.64310443  0.23438157     0.11500
H2478       H  0.32730220  0.64758504  0.27138900     0.11200
H2479       H  0.33833130  0.63933764  0.30601200     0.11800
H2480       H  0.38529372  0.60074914  0.28178390     0.13700
C2481       C  0.25895195  0.63506073  0.04450680    -0.06300
C2482       C  0.26197361  0.62155683  0.02845069    -0.06200
C2483       C  0.24826134  0.62107678  0.01242431    -0.24400
C2484       C  0.23131071  0.63397092  0.01248257     0.17800
C2485       C  0.22915782  0.64866616  0.02781241     0.15000
C2486       C  0.24322364  0.64937198  0.04350822    -0.19400
C2487       C  0.21206376  0.66129930  0.02820116    -0.21200
C2488       C  0.19634097  0.65812888  0.01461952    -0.13800
C2489       C  0.19776177  0.64266650  0.00021224     0.02900
C2490       C  0.21572646  0.63134910  0.99845002    -0.25900
H2491       H  0.27411584  0.61045286  0.02893449     0.07900
H2492       H  0.25020611  0.60984173  0.00073078     0.11500
H2493       H  0.24098935  0.65997045  0.05575584     0.11500
H2494       H  0.21032102  0.67274711  0.03972159     0.11200
H2495       H  0.18268779  0.66722798  0.01594890     0.11800
H2496       H  0.21690062  0.61944448  0.98732224     0.13700
C2497       C  0.36151159  0.21709334  0.62630051    -0.06300
C2498       C  0.37526928  0.22064798  0.61060061    -0.06200
C2499       C  0.37990669  0.24047610  0.60485239    -0.24400
C2500       C  0.37097288  0.25705541  0.61483388     0.17800
C2501       C  0.35741343  0.25365672  0.63088633     0.15000
C2502       C  0.35274192  0.23375545  0.63644702    -0.19400
C2503       C  0.34862181  0.27022118  0.64099986    -0.21200
C2504       C  0.35309586  0.29004121  0.63513949    -0.13800
C2505       C  0.36632158  0.29361514  0.61899826     0.02900
C2506       C  0.37526574  0.27696443  0.60896442    -0.25900
H2507       H  0.38211148  0.20812165  0.60251541     0.07900
H2508       H  0.39036922  0.24284872  0.59250471     0.11500
H2509       H  0.34214027  0.23126351  0.64865939     0.11500
H2510       H  0.33820626  0.26784078  0.65338591     0.11200
H2511       H  0.34603066  0.30255024  0.64306049     0.11800
H2512       H  0.38557995  0.27945698  0.59650909     0.13700
C2513       C  0.36745917  0.13822597  0.54742168    -0.06300
C2514       C  0.38094258  0.15396951  0.54346476    -0.06200
C2515       C  0.38589026  0.15894741  0.52342768    -0.24400
C2516       C  0.37737225  0.14825509  0.50715787     0.17800
C2517       C  0.36428425  0.13206332  0.51109168     0.15000
C2518       C  0.35958146  0.12711863  0.53107834    -0.19400
C2519       C  0.35567206  0.12133801  0.49497633    -0.21200
C2520       C  0.35964121  0.12688115  0.47497550    -0.13800
C2521       C  0.37232458  0.14318456  0.47078834     0.02900
C2522       C  0.38135785  0.15366146  0.48703415    -0.25900
H2523       H  0.38714198  0.16274085  0.55574090     0.07900
H2524       H  0.39602745  0.17140210  0.52063901     0.11500
H2525       H  0.34928919  0.11476808  0.53384722     0.11500
H2526       H  0.34561309  0.10883295  0.49785789     0.11200
H2527       H  0.35260922  0.11858436  0.46280970     0.11800
H2528       H  0.39128427  0.16625758  0.48407271     0.13700
C2529       C  0.26365043  0.04522041  0.63176179    -0.06300
C2530       C  0.26644275  0.03004687  0.61716129    -0.06200
C2531       C  0.25325147  0.01366678  0.61626887    -0.24400
C2532       C  0.23714440  0.01230393  0.62997715     0.17800
C2533       C  0.23538403  0.02670400  0.64568990     0.15000
C2534       C  0.24873677  0.04293794  0.64655762    -0.19400
C2535       C  0.21937228  0.02554296  0.65940810    -0.21200
C2536       C  0.20415148  0.01148267  0.65648537    -0.13800
C2537       C  0.20486432  0.99814564  0.64002019     0.02900
C2538       C  0.22194937  0.99781252  0.62741820    -0.25900
H2539       H  0.27801766  0.03147432  0.60569633     0.07900
H2540       H  0.25500511  0.00269480  0.60424894     0.11500
H2541       H  0.24673574  0.05447746  0.65803002     0.11500
H2542       H  0.21797906  0.03628065  0.67169210     0.11200
H2543       H  0.19124303  0.01171588  0.66656028     0.11800
H2544       H  0.22257789  0.98752316  0.61469880     0.13700
C2545       C  0.50763647  0.30206231  0.37549870    -0.06300
C2546       C  0.49305280  0.30502331  0.36033478    -0.06200
C2547       C  0.47920117  0.29001984  0.35587943    -0.24400
C2548       C  0.47957756  0.27188877  0.36669577     0.17800
C2549       C  0.49527269  0.26801151  0.38074650     0.15000
C2550       C  0.50950232  0.28310059  0.38486219    -0.19400
C2551       C  0.49542808  0.24977572  0.39154866    -0.21200
C2552       C  0.47918323  0.23650370  0.38987765    -0.13800
C2553       C  0.46269775  0.24128292  0.37729312     0.02900
C2554       C  0.46358002  0.25837278  0.36486895    -0.25900
H2555       H  0.49165775  0.31940696  0.35261233     0.07900
H2556       H  0.46745031  0.29309508  0.34486111     0.11500
H2557       H  0.52082327  0.28070220  0.39647083     0.11500
H2558       H  0.50744362  0.24636548  0.40216681     0.11200
H2559       H  0.47892121  0.22320398  0.39941240     0.11800
H2560       H  0.45104617  0.26198310  0.35489842     0.13700
C2561       C  0.51261011  0.38674859  0.47317650    -0.06300
C2562       C  0.51535639  0.37315652  0.48927076    -0.06200
C2563       C  0.50129199  0.37251073  0.50504555    -0.24400
C2564       C  0.48424455  0.38529060  0.50472982     0.17800
C2565       C  0.48241075  0.40013479  0.48944428     0.15000
C2566       C  0.49682472  0.40101693  0.47403067    -0.19400
C2567       C  0.46531100  0.41273537  0.48881063    -0.21200
C2568       C  0.44929644  0.40946095  0.50205059    -0.13800
C2569       C  0.45033627  0.39383536  0.51638110     0.02900
C2570       C  0.46828783  0.38248781  0.51840163    -0.25900
H2571       H  0.52754561  0.36213535  0.48897452     0.07900
H2572       H  0.50306678  0.36118175  0.51675863     0.11500
H2573       H  0.49479026  0.41175272  0.46178525     0.11500
H2574       H  0.46380038  0.42432647  0.47731330     0.11200
H2575       H  0.43572582  0.41860896  0.50050249     0.11800
H2576       H  0.46922867  0.37046642  0.52951431     0.13700
C2577       C  0.61993345  0.39425434  0.54721005    -0.06300
C2578       C  0.60609561  0.37876914  0.54351007    -0.06200
C2579       C  0.60193871  0.37267430  0.52371645    -0.24400
C2580       C  0.61158683  0.38192196  0.50724088     0.17800
C2581       C  0.62588904  0.39718025  0.51067540     0.15000
C2582       C  0.62996999  0.40325170  0.53064299    -0.19400
C2583       C  0.63551065  0.40631215  0.49403952    -0.21200
C2584       C  0.63047454  0.40083170  0.47415345    -0.13800
C2585       C  0.61577827  0.38610186  0.47061556     0.02900
C2586       C  0.60676796  0.37645168  0.48737307    -0.25900
H2587       H  0.59821129  0.37161618  0.55590172     0.07900
H2588       H  0.59093381  0.36090027  0.52127283     0.11500
H2589       H  0.64080087  0.41515693  0.53324686     0.11500
H2590       H  0.64663433  0.41798539  0.49640558     0.11200
H2591       H  0.63764850  0.40844910  0.46160940     0.11800
H2592       H  0.59551065  0.36489469  0.48501125     0.13700
C2593       C  0.46475219  0.52343343  0.38537919    -0.06300
C2594       C  0.48069892  0.52597535  0.37163123    -0.06200
C2595       C  0.49758192  0.51312061  0.37237844    -0.24400
C2596       C  0.49855032  0.49762225  0.38683898     0.17800
C2597       C  0.48338748  0.49641314  0.40186569     0.15000
C2598       C  0.46673607  0.50948222  0.40115380    -0.19400
C2599       C  0.48412125  0.48099203  0.41629464    -0.21200
C2600       C  0.49843292  0.46558975  0.41455092    -0.13800
C2601       C  0.51232524  0.46555567  0.39852233     0.02900
C2602       C  0.51325642  0.48227458  0.38548271    -0.25900
H2603       H  0.47945003  0.53685025  0.35945252     0.07900
H2604       H  0.50917134  0.51445589  0.36089866     0.11500
H2605       H  0.45454430  0.50773496  0.41196924     0.11500
H2606       H  0.47277166  0.48005984  0.42806757     0.11200
H2607       H  0.49776180  0.45298601  0.42497871     0.11800
H2608       H  0.52404285  0.48236253  0.37315228     0.13700
C2609       C  0.53549296  0.62867878  0.39357571    -0.06300
C2610       C  0.53153067  0.61809070  0.37572860    -0.06200
C2611       C  0.51153898  0.61475934  0.36968560    -0.24400
C2612       C  0.49526700  0.62186830  0.38149033     0.17800
C2613       C  0.49905993  0.63285411  0.39925252     0.15000
C2614       C  0.51909764  0.63626107  0.40509386    -0.19400
C2615       C  0.48275245  0.63982598  0.41111734    -0.21200
C2616       C  0.46278010  0.63527834  0.40579141    -0.13800
C2617       C  0.45891137  0.62378231  0.38850432     0.02900
C2618       C  0.47527768  0.61761553  0.37616281    -0.25900
H2619       H  0.54383327  0.61224265  0.36659422     0.07900
H2620       H  0.50879389  0.60632486  0.35596779     0.11500
H2621       H  0.52186347  0.64454499  0.41890684     0.11500
H2622       H  0.48548355  0.64832318  0.42480233     0.11200
H2623       H  0.45049254  0.64006549  0.41553543     0.11800
H2624       H  0.47253291  0.60884293  0.36264759     0.13700
C2625       C  0.53788061  0.62310577  0.49538426    -0.06300
C2626       C  0.52087218  0.63528689  0.49128398    -0.06200
C2627       C  0.50398107  0.63464871  0.50391098    -0.24400
C2628       C  0.50397286  0.62187764  0.52080310     0.17800
C2629       C  0.52041609  0.60842104  0.52400086     0.15000
C2630       C  0.53714586  0.60896142  0.51112137    -0.19400
C2631       C  0.52057428  0.59573492  0.54090722    -0.21200
C2632       C  0.50555571  0.59771602  0.55551350    -0.13800
C2633       C  0.49006718  0.61222379  0.55328286     0.02900
C2634       C  0.48865284  0.62344641  0.53536276    -0.25900
H2635       H  0.52108108  0.64615477  0.47904724     0.07900
H2636       H  0.49143611  0.64491761  0.50110750     0.11500
H2637       H  0.55013403  0.59931643  0.51417289     0.11500
H2638       H  0.53293281  0.58517780  0.54344971     0.11200
H2639       H  0.50672660  0.58870338  0.56913270     0.11800
H2640       H  0.47670918  0.63463344  0.53356006     0.13700
C2641       C  0.61690094  0.54528770  0.49749176    -0.06300
C2642       C  0.62925805  0.52843359  0.49324665    -0.06200
C2643       C  0.63035744  0.51223596  0.50678601    -0.24400
C2644       C  0.61916283  0.51274335  0.52476087     0.17800
C2645       C  0.60547687  0.52893537  0.52824482     0.15000
C2646       C  0.60427776  0.54496240  0.51448659    -0.19400
C2647       C  0.59425944  0.52958760  0.54613116    -0.21200
C2648       C  0.59780614  0.51531320  0.56119322    -0.13800
C2649       C  0.61247450  0.50003991  0.55855299     0.02900
C2650       C  0.62239999  0.49817556  0.53989952    -0.25900
H2651       H  0.63897819  0.52829478  0.48008838     0.07900
H2652       H  0.64074554  0.49985782  0.50371429     0.11500
H2653       H  0.59449825  0.55780507  0.51771687     0.11500
H2654       H  0.58351831  0.54173739  0.54892211     0.11200
H2655       H  0.58969084  0.51680429  0.57532616     0.11800
H2656       H  0.63363777  0.48634831  0.53771558     0.13700
C2657       C  0.61647241  0.54364551  0.39213059    -0.06300
C2658       C  0.59980611  0.53951474  0.37982048    -0.06200
C2659       C  0.59512272  0.51948328  0.37491364    -0.24400
C2660       C  0.60708111  0.50334506  0.38222906     0.17800
C2661       C  0.62427714  0.50737180  0.39400866     0.15000
C2662       C  0.62888385  0.52746034  0.39878987    -0.19400
C2663       C  0.63621081  0.49120889  0.40131663    -0.21200
C2664       C  0.63074115  0.47111460  0.39754154    -0.13800
C2665       C  0.61332662  0.46691909  0.38632780     0.02900
C2666       C  0.60181982  0.48323567  0.37840044    -0.25900
H2667       H  0.59001250  0.55165453  0.37464774     0.07900
H2668       H  0.58187042  0.51657533  0.36581407     0.11500
H2669       H  0.64190932  0.53044722  0.40820346     0.11500
H2670       H  0.64954293  0.49411420  0.41029869     0.11200
H2671       H  0.63988772  0.45891592  0.40366644     0.11800
H2672       H  0.58837741  0.48035881  0.36956418     0.13700
C2673       C  0.63026751  0.71082140  0.49944522    -0.06300
C2674       C  0.62162328  0.72947737  0.49383537    -0.06200
C2675       C  0.62262856  0.74608149  0.50685719    -0.24400
C2676       C  0.63217344  0.74417183  0.52568793     0.17800
C2677       C  0.64219263  0.72584628  0.53064034     0.15000
C2678       C  0.64137713  0.70943068  0.51741292    -0.19400
C2679       C  0.65184373  0.72376214  0.54929528    -0.21200
C2680       C  0.65042862  0.73914071  0.56352770    -0.13800
C2681       C  0.63931422  0.75689742  0.55940881     0.02900
C2682       C  0.63088914  0.75971203  0.54011903    -0.25900
H2683       H  0.61325102  0.73096099  0.47986342     0.07900
H2684       H  0.61513413  0.76008706  0.50261632     0.11500
H2685       H  0.64837530  0.69518089  0.52173115     0.11500
H2686       H  0.65973947  0.70988077  0.55323592     0.11200
H2687       H  0.65728566  0.73666199  0.57817574     0.11800
H2688       H  0.62243063  0.77341642  0.53674624     0.13700
C2689       C  0.38133421  0.29195122  0.14274573    -0.06300
C2690       C  0.39829895  0.28793090  0.13064077    -0.06200
C2691       C  0.40368713  0.26791559  0.12583618    -0.24400
C2692       C  0.39212012  0.25160689  0.13295391     0.17800
C2693       C  0.37462500  0.25552115  0.14450151     0.15000
C2694       C  0.36936887  0.27559572  0.14927428    -0.19400
C2695       C  0.36297427  0.23926202  0.15152613    -0.21200
C2696       C  0.36889399  0.21922469  0.14761754    -0.13800
C2697       C  0.38655470  0.21506766  0.13658724     0.02900
C2698       C  0.39793780  0.23146208  0.12907275    -0.25900
H2699       H  0.40778561  0.30016901  0.12554235     0.07900
H2700       H  0.41715159  0.26516447  0.11689355     0.11500
H2701       H  0.35612039  0.27845720  0.15851817     0.11500
H2702       H  0.34941611  0.24204398  0.16031990     0.11200
H2703       H  0.35981197  0.20699829  0.15343941     0.11800
H2704       H  0.41157187  0.22858713  0.12041830     0.13700
C2705       C  0.36574617  0.46587843  0.14153221    -0.06300
C2706       C  0.35153212  0.46993436  0.12632399    -0.06200
C2707       C  0.34685301  0.48999888  0.12092800    -0.24400
C2708       C  0.35628765  0.50631834  0.13069068     0.17800
C2709       C  0.37108687  0.50241851  0.14548236     0.15000
C2710       C  0.37575778  0.48232406  0.15069311    -0.19400
C2711       C  0.38057397  0.51868679  0.15523838    -0.21200
C2712       C  0.37492374  0.53872190  0.15088709    -0.13800
C2713       C  0.35972820  0.54282592  0.13668346     0.02900
C2714       C  0.35079636  0.52644582  0.12633371    -0.25900
H2715       H  0.34367678  0.45766725  0.11901009     0.07900
H2716       H  0.33552030  0.49276880  0.10943603     0.11500
H2717       H  0.38694701  0.47955361  0.16233267     0.11500
H2718       H  0.39206701  0.51589287  0.16656710     0.11200
H2719       H  0.38208325  0.55094605  0.15895821     0.11800
H2720       H  0.33916150  0.52929156  0.11515499     0.13700
C2721       C  0.36183139  0.46185328  0.24704615    -0.06300
C2722       C  0.34648881  0.46122636  0.26168328    -0.06200
C2723       C  0.34504316  0.47618337  0.27637383    -0.24400
C2724       C  0.35914724  0.49179097  0.27680913     0.17800
C2725       C  0.37368295  0.49345428  0.26122008     0.15000
C2726       C  0.37471444  0.47857816  0.24616387    -0.19400
C2727       C  0.38784497  0.50909712  0.26187001    -0.21200
C2728       C  0.38856028  0.52196646  0.27858227    -0.13800
C2729       C  0.37512839  0.51927922  0.29476218     0.02900
C2730       C  0.35988641  0.50481345  0.29336614    -0.25900
H2731       H  0.33625587  0.44856251  0.26240940     0.07900
H2732       H  0.33365950  0.47487022  0.28807905     0.11500
H2733       H  0.38659825  0.47911800  0.23488933     0.11500
H2734       H  0.39900679  0.51071002  0.25000044     0.11200
H2735       H  0.40037104  0.53315127  0.27941995     0.11800
H2736       H  0.34933476  0.50289411  0.30576680     0.13700
C2737       C  0.28901784  0.38234935  0.24583503    -0.06300
C2738       C  0.27206839  0.37066245  0.24100094    -0.06200
C2739       C  0.25516956  0.37061129  0.25368578    -0.24400
C2740       C  0.25508013  0.38215621  0.27141482     0.17800
C2741       C  0.27143369  0.39520625  0.27541444     0.15000
C2742       C  0.28816326  0.39538357  0.26248583    -0.19400
C2743       C  0.27151100  0.40674824  0.29307531    -0.21200
C2744       C  0.25655329  0.40394764  0.30756322    -0.13800
C2745       C  0.24120399  0.38969709  0.30455638     0.02900
C2746       C  0.23980732  0.37971191  0.28594693    -0.25900
H2747       H  0.27230589  0.36071249  0.22803473     0.07900
H2748       H  0.24267947  0.36072124  0.25020813     0.11500
H2749       H  0.30106411  0.40468305  0.26615210     0.11500
H2750       H  0.28377411  0.41701699  0.29624486     0.11200
H2751       H  0.25769769  0.41209078  0.32168760     0.11800
H2752       H  0.22795585  0.36876938  0.28351198     0.13700
C2753       C  0.38847585  0.29970878  0.24933100    -0.06300
C2754       C  0.40250188  0.30316916  0.26486335    -0.06200
C2755       C  0.40553937  0.28896539  0.28004018    -0.24400
C2756       C  0.39457074  0.27104822  0.27996351     0.17800
C2757       C  0.38188393  0.26646749  0.26340543     0.15000
C2758       C  0.37908949  0.28081038  0.24793090    -0.19400
C2759       C  0.37102303  0.24836667  0.26352897    -0.21200
C2760       C  0.37122245  0.23600885  0.28069663    -0.13800
C2761       C  0.38240961  0.24155457  0.29784381     0.02900
C2762       C  0.39492424  0.25846066  0.29691481    -0.25900
H2763       H  0.41025207  0.31746788  0.26601038     0.07900
H2764       H  0.41554175  0.29255531  0.29247329     0.11500
H2765       H  0.36838227  0.27797149  0.23589656     0.11500
H2766       H  0.36149289  0.24436448  0.25086802     0.11200
H2767       H  0.36173825  0.22276572  0.28096618     0.11800
H2768       H  0.40386900  0.26265404  0.30995588     0.13700
C2769       C  0.45528123  0.38084554  0.24928700    -0.06300
C2770       C  0.47095172  0.39469901  0.24620005    -0.06200
C2771       C  0.48702324  0.39575983  0.25983756    -0.24400
C2772       C  0.48761715  0.38297132  0.27672987     0.17800
C2773       C  0.47248869  0.36818997  0.27921769     0.15000
C2774       C  0.45653035  0.36713357  0.26540354    -0.19400
C2775       C  0.47290836  0.35547290  0.29611721    -0.21200
C2776       C  0.48731491  0.35831078  0.31115987    -0.13800
C2777       C  0.50172688  0.37366259  0.30937651     0.02900
C2778       C  0.50236602  0.38542568  0.29173884    -0.25900
H2779       H  0.47027544  0.40538971  0.23382102     0.07900
H2780       H  0.49851722  0.40711528  0.25762435     0.11500
H2781       H  0.44455939  0.35628188  0.26775829     0.11500
H2782       H  0.46155571  0.34393192  0.29814131     0.11200
H2783       H  0.48676460  0.34891637  0.32455091     0.11800
H2784       H  0.51344763  0.39731575  0.29030389     0.13700
C2785       C  0.21286996  0.48805386  0.13770233    -0.06300
C2786       C  0.22902947  0.48415114  0.12446848    -0.06200
C2787       C  0.24529109  0.49748220  0.12345334    -0.24400
C2788       C  0.24530302  0.51495866  0.13542553     0.17800
C2789       C  0.22999605  0.51776562  0.15011977     0.15000
C2790       C  0.21420160  0.50400992  0.15149697    -0.19400
C2791       C  0.22956093  0.53529871  0.16185964    -0.21200
C2792       C  0.24286976  0.55087430  0.15765883    -0.13800
C2793       C  0.25706109  0.54895211  0.14198286     0.02900
C2794       C  0.25912545  0.53050462  0.13173532    -0.25900
H2795       H  0.22839531  0.47169998  0.11389943     0.07900
H2796       H  0.25703074  0.49491553  0.11230972     0.11500
H2797       H  0.20193443  0.50687230  0.16201494     0.11500
H2798       H  0.21804223  0.53756298  0.17330102     0.11200
H2799       H  0.24132736  0.56488758  0.16597270     0.11800
H2800       H  0.27011219  0.52897221  0.11966570     0.13700
C2801       C  0.28599466  0.38235282  0.14459148    -0.06300
C2802       C  0.28218404  0.39630892  0.12908135    -0.06200
C2803       C  0.26228938  0.40109396  0.12350198    -0.24400
C2804       C  0.24586830  0.39197562  0.13332926     0.17800
C2805       C  0.24944231  0.37768752  0.14873660     0.15000
C2806       C  0.26946083  0.37297015  0.15425110    -0.19400
C2807       C  0.23292067  0.36860724  0.15851679    -0.21200
C2808       C  0.21299408  0.37397218  0.15333026    -0.13800
C2809       C  0.20931823  0.38848247  0.13828970     0.02900
C2810       C  0.22593361  0.39718429  0.12819954    -0.25900
H2811       H  0.29456767  0.40372712  0.12146301     0.07900
H2812       H  0.25973405  0.41210038  0.11162780     0.11500
H2813       H  0.27212798  0.36211145  0.16624185     0.11500
H2814       H  0.23541838  0.35756453  0.17036667     0.11200
H2815       H  0.20052853  0.36710667  0.16132083     0.11800
H2816       H  0.22341294  0.40836300  0.11647055     0.13700
C2817       C  0.13012518  0.39147487  0.22121048    -0.06300
C2818       C  0.14423986  0.37602495  0.22499853    -0.06200
C2819       C  0.14890760  0.37046718  0.24492774    -0.24400
C2820       C  0.13948880  0.38026086  0.26134944     0.17800
C2821       C  0.12493102  0.39547462  0.25773963     0.15000
C2822       C  0.12034976  0.40093736  0.23775509    -0.19400
C2823       C  0.11548242  0.40522078  0.27418282    -0.21200
C2824       C  0.12080379  0.40025524  0.29411730    -0.13800
C2825       C  0.13566722  0.38550909  0.29787618     0.02900
C2826       C  0.14468126  0.37536501  0.28131521    -0.25900
H2827       H  0.15197731  0.36858980  0.21261183     0.07900
H2828       H  0.16011219  0.35871922  0.24751261     0.11500
H2829       H  0.10931004  0.41284160  0.23513266     0.11500
H2830       H  0.10421160  0.41690997  0.27161107     0.11200
H2831       H  0.11366954  0.40824127  0.30652063     0.11800
H2832       H  0.15608660  0.36380010  0.28390013     0.13700
C2833       C  0.11312789  0.49909642  0.05578595    -0.06300
C2834       C  0.09808081  0.51384199  0.05920665    -0.06200
C2835       C  0.09382908  0.52854388  0.04475013    -0.24400
C2836       C  0.10481674  0.52892108  0.02673451     0.17800
C2837       C  0.11898619  0.51330148  0.02252572     0.15000
C2838       C  0.12286238  0.49824836  0.03701618    -0.19400
C2839       C  0.13002913  0.51382934  0.00450706    -0.21200
C2840       C  0.12822201  0.53042453  0.99159873    -0.13800
C2841       C  0.11534898  0.54671869  0.99652325     0.02900
C2842       C  0.10292759  0.54541961  0.01359108    -0.25900
H2843       H  0.09024609  0.51460481  0.07353589     0.07900
H2844       H  0.08277112  0.54023435  0.04814090     0.11500
H2845       H  0.13451283  0.48693960  0.03432798     0.11500
H2846       H  0.14080871  0.50194347  0.00090497     0.11200
H2847       H  0.13780190  0.53100415  0.97834852     0.11800
H2848       H  0.09279897  0.55782718  0.01735402     0.13700
C2849       C  0.04778450  0.49688451  0.12215152    -0.06300
C2850       C  0.04960011  0.51097984  0.10642633    -0.06200
C2851       C  0.03364395  0.52399439  0.10185631    -0.24400
C2852       C  0.01593545  0.52333448  0.11336106     0.17800
C2853       C  0.01335846  0.50797290  0.12801023     0.15000
C2854       C  0.02921571  0.49445829  0.13197254    -0.19400
C2855       C  0.99579522  0.50766799  0.13981550    -0.21200
C2856       C  0.98207835  0.52374485  0.13876048    -0.13800
C2857       C  0.98574389  0.54002985  0.12569562     0.02900
C2858       C  0.00179750  0.53900835  0.11196241    -0.25900
H2859       H  0.06374755  0.51270382  0.09842861     0.07900
H2860       H  0.03572776  0.53551426  0.09041095     0.11500
H2861       H  0.02775766  0.48344687  0.14401511     0.11500
H2862       H  0.99347757  0.49588773  0.15093968     0.11200
H2863       H  0.96956199  0.52420013  0.14930312     0.11800
H2864       H  0.00445126  0.55144499  0.10163467     0.13700
C2865       C  0.28539756  0.37523686  0.62546914    -0.06300
C2866       C  0.28176877  0.36074812  0.64047401    -0.06200
C2867       C  0.26185293  0.35567218  0.64566818    -0.24400
C2868       C  0.24529632  0.36494106  0.63585593     0.17800
C2869       C  0.24877090  0.38005286  0.62130650     0.15000
C2870       C  0.26870011  0.38516623  0.61635808    -0.19400
C2871       C  0.23227379  0.38937438  0.61148592    -0.21200
C2872       C  0.21244296  0.38327227  0.61554613    -0.13800
C2873       C  0.20881872  0.36775993  0.62947495     0.02900
C2874       C  0.22536897  0.35896195  0.63988255    -0.25900
H2875       H  0.29426616  0.35299944  0.64777567     0.07900
H2876       H  0.25939758  0.34413047  0.65700278     0.11500
H2877       H  0.27114932  0.39657664  0.60487754     0.11500
H2878       H  0.23474501  0.40107594  0.60031823     0.11200
H2879       H  0.20002718  0.39027307  0.60741397     0.11800
H2880       H  0.22281121  0.34708739  0.65085343     0.13700
C2881       C  0.25938042  0.21222412  0.62751274    -0.06300
C2882       C  0.26428807  0.22965040  0.63850984    -0.06200
C2883       C  0.25150325  0.24654988  0.63817322    -0.24400
C2884       C  0.23361997  0.24619845  0.62687760     0.17800
C2885       C  0.22945558  0.22928034  0.61454487     0.15000
C2886       C  0.24242973  0.21247320  0.61483701    -0.19400
C2887       C  0.21167889  0.22886035  0.60316459    -0.21200
C2888       C  0.19727716  0.24413689  0.60543467    -0.13800
C2889       C  0.20045311  0.26006983  0.61907279     0.02900
C2890       C  0.21914724  0.26170404  0.62885723    -0.25900
H2891       H  0.27747649  0.22986348  0.64818532     0.07900
H2892       H  0.25509189  0.25946491  0.64751089     0.11500
H2893       H  0.23869470  0.19917795  0.60609504     0.11500
H2894       H  0.20839165  0.21617407  0.59340965     0.11200
H2895       H  0.18308744  0.24280094  0.59741394     0.11800
H2896       H  0.22173892  0.27403685  0.63927375     0.13700
C2897       C  0.12688752  0.36845080  0.54794557    -0.06300
C2898       C  0.14312194  0.38144709  0.54431639    -0.06200
C2899       C  0.14866705  0.38632840  0.52445942    -0.24400
C2900       C  0.13802713  0.37829888  0.50794552     0.17800
C2901       C  0.12115130  0.36594301  0.51143912     0.15000
C2902       C  0.11566516  0.36118728  0.53137349    -0.19400
C2903       C  0.11045448  0.35800809  0.49492243    -0.21200
C2904       C  0.11689785  0.36162830  0.47506007    -0.13800
C2905       C  0.13410570  0.37327085  0.47140282     0.02900
C2906       C  0.14432263  0.38192302  0.48801568    -0.25900
H2907       H  0.15194470  0.38723898  0.55676344     0.07900
H2908       H  0.16159664  0.39595134  0.52200699     0.11500
H2909       H  0.10294043  0.35130666  0.53394734     0.11500
H2910       H  0.09735512  0.34861200  0.49739016     0.11200
H2911       H  0.10871036  0.35496339  0.46261434     0.11800
H2912       H  0.15753087  0.39115503  0.48551658     0.13700
C2913       C  0.03769967  0.26425073  0.64043556    -0.06300
C2914       C  0.02044022  0.26832800  0.62873724    -0.06200
C2915       C  0.00437137  0.25476308  0.62852949    -0.24400
C2916       C  0.00544464  0.23689659  0.63990633     0.17800
C2917       C  0.02214748  0.23346142  0.65282376     0.15000
C2918       C  0.03800990  0.24730360  0.65321105    -0.19400
C2919       C  0.02339724  0.21555943  0.66406813    -0.21200
C2920       C  0.00909082  0.20047147  0.66131188    -0.13800
C2921       C  0.99316686  0.20318512  0.64750562     0.02900
C2922       C  0.99085552  0.22182398  0.63757443    -0.25900
H2923       H  0.01984203  0.28139084  0.61888735     0.07900
H2924       H  0.99160223  0.25772946  0.61867311     0.11500
H2925       H  0.05119571  0.24416922  0.66247238     0.11500
H2926       H  0.03599067  0.21278907  0.67419715     0.11200
H2927       H  0.01098130  0.18632451  0.66935632     0.11800
H2928       H  0.97855118  0.22406694  0.62696179     0.13700
C2929       C  0.60763050  0.37382458  0.29708607    -0.06300
C2930       C  0.62108113  0.35785501  0.29304946    -0.06200
C2931       C  0.62606828  0.35286639  0.27310457    -0.24400
C2932       C  0.61781075  0.36388307  0.25685582     0.17800
C2933       C  0.60466030  0.38029167  0.26064297     0.15000
C2934       C  0.59961652  0.38512551  0.28073763    -0.19400
C2935       C  0.59659690  0.39133293  0.24424186    -0.21200
C2936       C  0.60122430  0.38586738  0.22422386    -0.13800
C2937       C  0.61396632  0.36927579  0.22033239     0.02900
C2938       C  0.62233257  0.35854361  0.23687387    -0.25900
H2939       H  0.62736012  0.34892594  0.30528458     0.07900
H2940       H  0.63621932  0.34023009  0.27037240     0.11500
H2941       H  0.58929274  0.39759457  0.28362802     0.11500
H2942       H  0.58654770  0.40406227  0.24690159     0.11200
H2943       H  0.59466965  0.39440658  0.21185981     0.11800
H2944       H  0.63232171  0.34574665  0.23428026     0.13700
C2945       C  0.54053877  0.26383083  0.13190605    -0.06300
C2946       C  0.52515348  0.26618727  0.11745895    -0.06200
C2947       C  0.50872758  0.25304204  0.11726822    -0.24400
C2948       C  0.50750309  0.23743553  0.13155588     0.17800
C2949       C  0.52241736  0.23579780  0.14680209     0.15000
C2950       C  0.53873867  0.24904232  0.14691702    -0.19400
C2951       C  0.52138083  0.22027275  0.16108728    -0.21200
C2952       C  0.50652139  0.20563254  0.15949025    -0.13800
C2953       C  0.49236172  0.20637436  0.14370472     0.02900
C2954       C  0.49234421  0.22278527  0.13024603    -0.25900
H2955       H  0.52628911  0.27757337  0.10576747     0.07900
H2956       H  0.49741221  0.25461326  0.10552739     0.11500
H2957       H  0.55049810  0.24729349  0.15821926     0.11500
H2958       H  0.53259006  0.21893573  0.17296473     0.11200
H2959       H  0.50664154  0.19319782  0.17014230     0.11800
H2960       H  0.48147543  0.22340799  0.11800441     0.13700
C2961       C  0.53623516  0.36661378  0.13754656    -0.06300
C2962       C  0.53251499  0.38335425  0.15002977    -0.06200
C2963       C  0.51264727  0.38915030  0.15483925    -0.24400
C2964       C  0.49612633  0.37831351  0.14723348     0.17800
C2965       C  0.49963487  0.36154619  0.13454962     0.15000
C2966       C  0.51961306  0.35579727  0.12984075    -0.19400
C2967       C  0.48309276  0.35078028  0.12686159    -0.21200
C2968       C  0.46322649  0.35648405  0.13182597    -0.13800
C2969       C  0.45956141  0.37293973  0.14469293     0.02900
C2970       C  0.47617291  0.38385172  0.15223525    -0.25900
H2971       H  0.54496404  0.39192193  0.15613221     0.07900
H2972       H  0.51020051  0.40208774  0.16457352     0.11500
H2973       H  0.52218299  0.34281745  0.12018299     0.11500
H2974       H  0.48552798  0.33785439  0.11710798     0.11200
H2975       H  0.45076313  0.34778249  0.12594691     0.11800
H2976       H  0.47359909  0.39664231  0.16214452     0.13700
C2977       C  0.62625750  0.21031502  0.00024662    -0.06300
C2978       C  0.61391754  0.22708511  0.99562420    -0.06200
C2979       C  0.61466441  0.24450487  0.00738511    -0.24400
C2980       C  0.62779586  0.24539922  0.02390400     0.17800
C2981       C  0.64122691  0.22906517  0.02780315     0.15000
C2982       C  0.64040733  0.21163158  0.01589793    -0.19400
C2983       C  0.65435684  0.22993714  0.04431401    -0.21200
C2984       C  0.65285365  0.24592501  0.05789891    -0.13800
C2985       C  0.63834230  0.26132388  0.05504762     0.02900
C2986       C  0.62668338  0.26164179  0.03741388    -0.25900
H2987       H  0.60299634  0.22641245  0.98347677     0.07900
H2988       H  0.60436839  0.25691213  0.00408578     0.11500
H2989       H  0.65012617  0.19880150  0.01936119     0.11500
H2990       H  0.66494267  0.21771517  0.04737109     0.11200
H2991       H  0.66218991  0.24558975  0.07133017     0.11800
H2992       H  0.61547618  0.27349493  0.03514830     0.13700
C2993       C  0.21189512  0.12546771  0.77230392    -0.06300
C2994       C  0.22648322  0.14056575  0.77484103    -0.06200
C2995       C  0.24275787  0.14198158  0.76143091    -0.24400
C2996       C  0.24455044  0.12836575  0.74529738     0.17800
C2997       C  0.23061709  0.11235932  0.74356970     0.15000
C2998       C  0.21457805  0.11089213  0.75721303    -0.19400
C2999       C  0.23208942  0.09884893  0.72741149    -0.21200
C3000       C  0.24622368  0.10204347  0.71221120    -0.13800
C3001       C  0.25933407  0.11856741  0.71311010     0.02900
C3002       C  0.25912138  0.13118635  0.73014608    -0.25900
H3003       H  0.22470754  0.15193506  0.78646094     0.07900
H3004       H  0.25333486  0.15427564  0.76309137     0.11500
H3005       H  0.20345557  0.09909667  0.75529883     0.11500
H3006       H  0.22162431  0.08641614  0.72598189     0.11200
H3007       H  0.24635011  0.09203218  0.69928112     0.11800
H3008       H  0.26918402  0.14400648  0.73086454     0.13700
C3009       C  0.13436771  0.03927656  0.77481409    -0.06300
C3010       C  0.12071852  0.02347407  0.77818718    -0.06200
C3011       C  0.11930182  0.00761473  0.76438143    -0.24400
C3012       C  0.13136876  0.00755374  0.74698103     0.17800
C3013       C  0.14656880  0.02229533  0.74468316     0.15000
C3014       C  0.14824290  0.03781796  0.75887164    -0.19400
C3015       C  0.15846771  0.02250380  0.72721175    -0.21200
C3016       C  0.15382438  0.00976679  0.71118487    -0.13800
C3017       C  0.13754901  0.99636003  0.71262682     0.02900
C3018       C  0.12724452  0.99431216  0.73102549    -0.25900
H3019       H  0.11005719  0.02416869  0.79058481     0.07900
H3020       H  0.10776735  0.99628767  0.76653853     0.11500
H3021       H  0.15903723  0.04981464  0.75639268     0.11500
H3022       H  0.17037894  0.03349234  0.72535243     0.11200
H3023       H  0.16226007  0.01119454  0.69724154     0.11800
H3024       H  0.11478471  0.98384372  0.73225576     0.13700
C3025       C  0.11336924  0.20296595  0.76212828    -0.06300
C3026       C  0.09908595  0.20003334  0.74675779    -0.06200
C3027       C  0.09545945  0.21506018  0.73246822    -0.24400
C3028       C  0.10639616  0.23303195  0.73314973     0.17800
C3029       C  0.11982669  0.23664655  0.74935221     0.15000
C3030       C  0.12294957  0.22167145  0.76400866    -0.19400
C3031       C  0.13098190  0.25453430  0.74977010    -0.21200
C3032       C  0.13012134  0.26786969  0.73344493    -0.13800
C3033       C  0.11795930  0.26352081  0.71664860     0.02900
C3034       C  0.10529417  0.24668750  0.71709148    -0.25900
H3035       H  0.09132169  0.18577068  0.74529680     0.07900
H3036       H  0.08496741  0.21216081  0.72026068     0.11500
H3037       H  0.13397201  0.22397743  0.77588474     0.11500
H3038       H  0.14121083  0.25763816  0.76214025     0.11200
H3039       H  0.13985484  0.28093536  0.73345937     0.11800
H3040       H  0.09568298  0.24339955  0.70425977     0.13700
C3041       C  0.98579717  0.12595681  0.71748412    -0.06300
C3042       C  0.98156964  0.11453228  0.73484508    -0.06200
C3043       C  0.99527442  0.11411811  0.75097669    -0.24400
C3044       C  0.01341777  0.12492181  0.74974689     0.17800
C3045       C  0.01683512  0.13764241  0.73292969     0.15000
C3046       C  0.00284915  0.13836039  0.71717970    -0.19400
C3047       C  0.03489308  0.14832493  0.73133024    -0.21200
C3048       C  0.05017407  0.14523819  0.74541720    -0.13800
C3049       C  0.04755460  0.13166374  0.76151034     0.02900
C3050       C  0.02877796  0.12223722  0.76420199    -0.25900
H3051       H  0.96834206  0.10504004  0.73545083     0.07900
H3052       H  0.99223403  0.10448391  0.76385317     0.11500
H3053       H  0.00603850  0.14751335  0.70396643     0.11500
H3054       H  0.03762303  0.15826738  0.71860588     0.11200
H3055       H  0.06439075  0.15293912  0.74325737     0.11800
H3056       H  0.02662993  0.11182423  0.77666020     0.13700
C3057       C  0.75559887  0.70985281  0.62577210    -0.06300
C3058       C  0.74222311  0.71021449  0.60936921    -0.06200
C3059       C  0.73006677  0.72709607  0.60589245    -0.24400
C3060       C  0.73075382  0.74347690  0.61919315     0.17800
C3061       C  0.74531844  0.74389566  0.63481463     0.15000
C3062       C  0.75810306  0.72718620  0.63766392    -0.19400
C3063       C  0.74542905  0.76008601  0.64848193    -0.21200
C3064       C  0.72978133  0.77441283  0.64807988    -0.13800
C3065       C  0.71425459  0.77274935  0.63376771     0.02900
C3066       C  0.71569193  0.75827826  0.61845672    -0.25900
H3067       H  0.74046854  0.69706401  0.59982851     0.07900
H3068       H  0.71909389  0.72670213  0.59374857     0.11500
H3069       H  0.76853265  0.72693472  0.65028926     0.11500
H3070       H  0.75659044  0.76073938  0.66042405     0.11200
H3071       H  0.72890471  0.78564378  0.65993105     0.11800
H3072       H  0.70380416  0.75722066  0.60722465     0.13700
C3073       C  0.76069534  0.54234736  0.63884155    -0.06300
C3074       C  0.76475987  0.52599384  0.62591067    -0.06200
C3075       C  0.75283524  0.50870585  0.62672396    -0.24400
C3076       C  0.73671186  0.50770472  0.64041630     0.17800
C3077       C  0.73402599  0.52326481  0.65484676     0.15000
C3078       C  0.74623958  0.54035425  0.65413484    -0.19400
C3079       C  0.71795537  0.52242471  0.66852249    -0.21200
C3080       C  0.70331762  0.50763143  0.66640008    -0.13800
C3081       C  0.70471641  0.49336579  0.65075979     0.02900
C3082       C  0.72214607  0.49254026  0.63870349    -0.25900
H3083       H  0.77616398  0.52713183  0.61423767     0.07900
H3084       H  0.75534488  0.49679018  0.61577355     0.11500
H3085       H  0.74336743  0.55279407  0.66442751     0.11500
H3086       H  0.71588974  0.53404428  0.67987880     0.11200
H3087       H  0.69015858  0.50822359  0.67613414     0.11800
H3088       H  0.72336344  0.48145829  0.62671009     0.13700
C3089       C  0.75486323  0.61324387  0.71592576    -0.06300
C3090       C  0.73987322  0.59844975  0.71425839    -0.06200
C3091       C  0.72536671  0.59630556  0.72926701    -0.24400
C3092       C  0.72554109  0.60910662  0.74602334     0.17800
C3093       C  0.74158911  0.62283453  0.74873590     0.15000
C3094       C  0.75645474  0.62456897  0.73374455    -0.19400
C3095       C  0.74149188  0.63572621  0.76552723    -0.21200
C3096       C  0.72473945  0.63629821  0.77839025    -0.13800
C3097       C  0.70806199  0.62387133  0.77462235     0.02900
C3098       C  0.70906185  0.60952518  0.75915555    -0.25900
H3099       H  0.73861326  0.58934672  0.70074085     0.07900
H3100       H  0.71328957  0.58556083  0.72712353     0.11500
H3101       H  0.76804605  0.63595860  0.73511580     0.11500
H3102       H  0.75375881  0.64617333  0.76800655     0.11200
H3103       H  0.72431415  0.64729594  0.79047791     0.11800
H3104       H  0.69634733  0.59966028  0.75642048     0.13700
C3105       C  0.70479325  0.63573008  0.49565836    -0.06300
C3106       C  0.72240254  0.62482385  0.49067311    -0.06200
C3107       C  0.73928042  0.62546483  0.50327924    -0.24400
C3108       C  0.73862921  0.63690296  0.52105353     0.17800
C3109       C  0.72161889  0.64940043  0.52506491     0.15000
C3110       C  0.70491963  0.64893984  0.51217005    -0.19400
C3111       C  0.72082605  0.66077187  0.54283261    -0.21200
C3112       C  0.73563423  0.65804875  0.55752294    -0.13800
C3113       C  0.75152418  0.64413541  0.55450150     0.02900
C3114       C  0.75375266  0.63464968  0.53571501    -0.25900
H3115       H  0.72268618  0.61478925  0.47777214     0.07900
H3116       H  0.75229591  0.61602210  0.49981102     0.11500
H3117       H  0.69147018  0.65767122  0.51587523     0.11500
H3118       H  0.70806612  0.67066560  0.54598315     0.11200
H3119       H  0.73392254  0.66585317  0.57179577     0.11800
H3120       H  0.76608890  0.62402709  0.53326695     0.13700
C3121       C  0.75422175  0.20740204  0.11703198    -0.06300
C3122       C  0.73835740  0.20590360  0.10304079    -0.06200
C3123       C  0.72309429  0.22049868  0.10244266    -0.24400
C3124       C  0.72336020  0.23668028  0.11600110     0.17800
C3125       C  0.73987213  0.23900970  0.12933480     0.15000
C3126       C  0.75539031  0.22444033  0.12957621    -0.19400
C3127       C  0.73991965  0.25519564  0.14299176    -0.21200
C3128       C  0.72316769  0.26815098  0.14430780    -0.13800
C3129       C  0.70624618  0.26504377  0.13195472     0.02900
C3130       C  0.70679475  0.24983484  0.11726322    -0.25900
H3131       H  0.73727182  0.19295283  0.09313427     0.07900
H3132       H  0.71060520  0.21861018  0.09203932     0.11500
H3133       H  0.76757232  0.22566170  0.14045103     0.11500
H3134       H  0.75249794  0.25729671  0.15324180     0.11200
H3135       H  0.72302688  0.27990961  0.15565566     0.11800
H3136       H  0.69384792  0.24754568  0.10749881     0.13700
C3137       C  0.70509639  0.13784982  0.99756449    -0.06300
C3138       C  0.70494839  0.15417012  0.01104239    -0.06200
C3139       C  0.72127071  0.15732106  0.02385284    -0.24400
C3140       C  0.73765846  0.14380696  0.02372751     0.17800
C3141       C  0.73863733  0.12818992  0.00918829     0.15000
C3142       C  0.72245630  0.12559804  0.99580038    -0.19400
C3143       C  0.75489585  0.11441080  0.00954400    -0.21200
C3144       C  0.76879439  0.11481035  0.02545138    -0.13800
C3145       C  0.76664425  0.12917107  0.04090312     0.02900
C3146       C  0.75197905  0.14446844  0.03915672    -0.25900
H3147       H  0.69179031  0.16394871  0.01231132     0.07900
H3148       H  0.72043913  0.16947591  0.03479259     0.11500
H3149       H  0.72260295  0.11298151  0.98536517     0.11500
H3150       H  0.75601188  0.10246812  0.99840519     0.11200
H3151       H  0.78017001  0.10299136  0.02648883     0.11800
H3152       H  0.75049755  0.15578076  0.05092917     0.13700
C3153       C  0.75887245  0.04587966  0.13993051    -0.06300
C3154       C  0.74463736  0.04872406  0.15546103    -0.06200
C3155       C  0.73020330  0.03412549  0.15955946    -0.24400
C3156       C  0.72957352  0.01648857  0.14801000     0.17800
C3157       C  0.74474288  0.01268254  0.13337498     0.15000
C3158       C  0.75958569  0.02735456  0.12960034    -0.19400
C3159       C  0.74385599  0.99495282  0.12182824    -0.21200
C3160       C  0.72724784  0.98208930  0.12357948    -0.13800
C3161       C  0.71137239  0.98673118  0.13697538     0.02900
C3162       C  0.71317786  0.00338683  0.14987432    -0.25900
H3163       H  0.74402423  0.06276890  0.16383410     0.07900
H3164       H  0.71884394  0.03716046  0.17098845     0.11500
H3165       H  0.77052589  0.02506069  0.11760910     0.11500
H3166       H  0.75542228  0.99159546  0.11070580     0.11200
H3167       H  0.72629021  0.96916465  0.11363295     0.11800
H3168       H  0.70113762  0.00694030  0.16044815     0.13700
C3169       C  0.13860559  0.46442257  0.38241581    -0.06300
C3170       C  0.12196752  0.46846352  0.36988939    -0.06200
C3171       C  0.11587078  0.48842504  0.36605652    -0.24400
C3172       C  0.12631923  0.50468702  0.37469422     0.17800
C3173       C  0.14283833  0.50087663  0.38759847     0.15000
C3174       C  0.14885383  0.48078357  0.39138662    -0.19400
C3175       C  0.15322309  0.51725271  0.39620142    -0.21200
C3176       C  0.14761766  0.53727519  0.39159347    -0.13800
C3177       C  0.13154755  0.54119386  0.37832582     0.02900
C3178       C  0.12076516  0.52470520  0.37026653    -0.25900
H3179       H  0.11382119  0.45621555  0.36287578     0.07900
H3180       H  0.10312114  0.49115726  0.35613533     0.11500
H3181       H  0.16168830  0.47792781  0.40117365     0.11500
H3182       H  0.16592567  0.51456423  0.40619522     0.11200
H3183       H  0.15618251  0.54962083  0.39790625     0.11800
H3184       H  0.10820410  0.52740061  0.36008994     0.13700
C3185       C  0.20995470  0.62152069  0.37385152    -0.06300
C3186       C  0.21386671  0.60693846  0.38876575    -0.06200
C3187       C  0.23384820  0.60147605  0.39352748    -0.24400
C3188       C  0.25017064  0.61057535  0.38347766     0.17800
C3189       C  0.24636170  0.62557581  0.36879738     0.15000
C3190       C  0.22636740  0.63090272  0.36410999    -0.19400
C3191       C  0.26260373  0.63483896  0.35883548    -0.21200
C3192       C  0.28253878  0.62908633  0.36318114    -0.13800
C3193       C  0.28651918  0.61386727  0.37741288     0.02900
C3194       C  0.27021525  0.60478351  0.38763713    -0.25900
H3195       H  0.20152093  0.59950421  0.39642469     0.07900
H3196       H  0.23653664  0.58997652  0.40489536     0.11500
H3197       H  0.22362288  0.64227992  0.35261796     0.11500
H3198       H  0.25987485  0.64640520  0.34754164     0.11200
H3199       H  0.29480668  0.63623037  0.35512209     0.11800
H3200       H  0.27310021  0.59309407  0.39877556     0.13700
C3201       C  0.25045289  0.61776092  0.20836266    -0.06300
C3202       C  0.23496236  0.60364305  0.20560287    -0.06200
C3203       C  0.22096472  0.60006239  0.22085381    -0.24400
C3204       C  0.22213157  0.61070597  0.23903749     0.17800
C3205       C  0.23857541  0.62374848  0.24260406     0.15000
C3206       C  0.25289659  0.62695334  0.22729206    -0.19400
C3207       C  0.23952776  0.63445354  0.26083508    -0.21200
C3208       C  0.22349457  0.63357231  0.27457796    -0.13800
C3209       C  0.20643809  0.62180296  0.27034231     0.02900
C3210       C  0.20635352  0.60961159  0.25304416    -0.25900
H3211       H  0.23303821  0.59608015  0.19124915     0.07900
H3212       H  0.20859688  0.58982510  0.21799137     0.11500
H3213       H  0.26493479  0.63772367  0.22957834     0.11500
H3214       H  0.25211694  0.64433835  0.26396063     0.11200
H3215       H  0.22397363  0.64292014  0.28797270     0.11800
H3216       H  0.19336192  0.60029266  0.24976803     0.13700
C3217       C  0.14063463  0.49421177  0.21691046    -0.06300
C3218       C  0.15589995  0.50878183  0.21567953    -0.06200
C3219       C  0.15809110  0.52310401  0.23085301    -0.24400
C3220       C  0.14489822  0.52315592  0.24735341     0.17800
C3221       C  0.13052493  0.50759159  0.24952405     0.15000
C3222       C  0.12870092  0.49295685  0.23437394    -0.19400
C3223       C  0.11724843  0.50785295  0.26603002    -0.21200
C3224       C  0.11715869  0.52421419  0.27932850    -0.13800
C3225       C  0.13037898  0.54041149  0.27625149     0.02900
C3226       C  0.14486246  0.53932817  0.26086392    -0.25900
H3227       H  0.16543697  0.50980807  0.20242481     0.07900
H3228       H  0.16931665  0.53481154  0.22909730     0.11500
H3229       H  0.11691687  0.48171559  0.23540526     0.11500
H3230       H  0.10623119  0.49599039  0.26802232     0.11200
H3231       H  0.10592112  0.52478317  0.29121313     0.11800
H3232       H  0.15523336  0.55173343  0.25858624     0.13700
C3233       C  0.04027347  0.62817517  0.27263718    -0.06300
C3234       C  0.02318540  0.61659422  0.27727172    -0.06200
C3235       C  0.00659975  0.61646971  0.26419461    -0.24400
C3236       C  0.00701015  0.62785446  0.24632770     0.17800
C3237       C  0.02351120  0.64081014  0.24257797     0.15000
C3238       C  0.03989246  0.64103852  0.25585281    -0.19400
C3239       C  0.02412151  0.65223240  0.22484472    -0.21200
C3240       C  0.00951318  0.64945891  0.21006936    -0.13800
C3241       C  0.99399504  0.63534381  0.21284457     0.02900
C3242       C  0.99209479  0.62539987  0.23146292    -0.25900
H3243       H  0.02311405  0.60675268  0.29034789     0.07900
H3244       H  0.99398920  0.60666244  0.26749208     0.11500
H3245       H  0.05291596  0.65026023  0.25238941     0.11500
H3246       H  0.03651449  0.66242057  0.22188661     0.11200
H3247       H  0.01102333  0.65759378  0.19594954     0.11800
H3248       H  0.98008805  0.61458621  0.23371718     0.13700
C3249       C  0.12292538  0.76480017  0.21902457    -0.06300
C3250       C  0.13473088  0.76874444  0.23617900    -0.06200
C3251       C  0.13494583  0.75516910  0.25244158    -0.24400
C3252       C  0.12343929  0.73745602  0.25167549     0.17800
C3253       C  0.11069553  0.73409101  0.23489277     0.15000
C3254       C  0.11039155  0.74783193  0.21885858    -0.19400
C3255       C  0.09921717  0.71649235  0.23385342    -0.21200
C3256       C  0.10125172  0.70169748  0.24866311    -0.13800
C3257       C  0.11468640  0.70427342  0.26486260     0.02900
C3258       C  0.12519527  0.72255132  0.26675892    -0.25900
H3259       H  0.14444683  0.78180728  0.23663875     0.07900
H3260       H  0.14469977  0.75811839  0.26523011     0.11500
H3261       H  0.10106695  0.74476027  0.20576063     0.11500
H3262       H  0.08926897  0.71378665  0.22114946     0.11200
H3263       H  0.09282215  0.68784981  0.24700989     0.11800
H3264       H  0.13557298  0.72466519  0.27923346     0.13700
C3265       C  0.12131419  0.71374278  0.99641079    -0.06300
C3266       C  0.10962095  0.73110934  0.99236278    -0.06200
C3267       C  0.11020382  0.74768471  0.00546163    -0.24400
C3268       C  0.12246054  0.74702268  0.02274905     0.17800
C3269       C  0.13541385  0.73017976  0.02589875     0.15000
C3270       C  0.13488483  0.71379680  0.01263169    -0.19400
C3271       C  0.14774013  0.72932801  0.04301045    -0.21200
C3272       C  0.14608687  0.74418561  0.05775180    -0.13800
C3273       C  0.13219054  0.76022562  0.05559022     0.02900
C3274       C  0.12107746  0.76214902  0.03759263    -0.25900
H3275       H  0.09921573  0.73143378  0.97975102     0.07900
H3276       H  0.10036236  0.76055294  0.00261509     0.11500
H3277       H  0.14421863  0.70056357  0.01563161     0.11500
H3278       H  0.15792373  0.71663790  0.04549687     0.11200
H3279       H  0.15505918  0.74257681  0.07134600     0.11800
H3280       H  0.11040559  0.77454534  0.03576565     0.13700
C3281       C  0.25619940  0.71251917  0.11544338    -0.06300
C3282       C  0.24142884  0.71113327  0.10026199    -0.06200
C3283       C  0.22696073  0.72635554  0.09786984    -0.24400
C3284       C  0.22698310  0.74305706  0.11077916     0.17800
C3285       C  0.24316640  0.74570734  0.12447478     0.15000
C3286       C  0.25795263  0.73049589  0.12648597    -0.19400
C3287       C  0.24313950  0.76253121  0.13730096    -0.21200
C3288       C  0.22618273  0.77522726  0.13820466    -0.13800
C3289       C  0.20914399  0.77123072  0.12625846     0.02900
C3290       C  0.21016322  0.75600012  0.11160754    -0.25900
H3291       H  0.24015322  0.69759969  0.09119085     0.07900
H3292       H  0.21491225  0.72431396  0.08699279     0.11500
H3293       H  0.26949041  0.73177721  0.13803179     0.11500
H3294       H  0.25556526  0.76503522  0.14763630     0.11200
H3295       H  0.22581560  0.78718651  0.14934551     0.11800
H3296       H  0.19719522  0.75315139  0.10203809     0.13700
C3297       C  0.04219966  0.76423641  0.14131044    -0.06300
C3298       C  0.02520919  0.76894965  0.12939635    -0.06200
C3299       C  0.00919439  0.75545893  0.12799372    -0.24400
C3300       C  0.00997659  0.73709522  0.13848832     0.17800
C3301       C  0.02631088  0.73306186  0.15176101     0.15000
C3302       C  0.04219194  0.74678216  0.15327172    -0.19400
C3303       C  0.02720582  0.71474097  0.16224508    -0.21200
C3304       C  0.01291694  0.69992372  0.15847401    -0.13800
C3305       C  0.99738490  0.70326095  0.14432720     0.02900
C3306       C  0.99544111  0.72219859  0.13500758    -0.25900
H3307       H  0.02481471  0.78248429  0.12020201     0.07900
H3308       H  0.99671834  0.75892742  0.11792196     0.11500
H3309       H  0.05515813  0.74318832  0.16268356     0.11500
H3310       H  0.03948361  0.71148931  0.17262917     0.11200
H3311       H  0.01450654  0.68550252  0.16607875     0.11800
H3312       H  0.98346998  0.72486628  0.12411293     0.13700
C3313       C  0.61537554  0.21623475  0.37116302    -0.06300
C3314       C  0.59809975  0.21994138  0.38290423    -0.06200
C3315       C  0.59203639  0.23988310  0.38717159    -0.24400
C3316       C  0.60323338  0.25635705  0.37982766     0.17800
C3317       C  0.62078167  0.25273406  0.36828937     0.15000
C3318       C  0.62671803  0.23279556  0.36411932    -0.19400
C3319       C  0.63202886  0.26910797  0.36092015    -0.21200
C3320       C  0.62599054  0.28902251  0.36501391    -0.13800
C3321       C  0.60862191  0.29287968  0.37654077     0.02900
C3322       C  0.59724144  0.27638171  0.38381073    -0.25900
H3323       H  0.58904039  0.20750327  0.38830196     0.07900
H3324       H  0.57849156  0.24243293  0.39604253     0.11500
H3325       H  0.64015815  0.23020281  0.35508092     0.11500
H3326       H  0.64554034  0.26650043  0.35200842     0.11200
H3327       H  0.63497331  0.30138065  0.35930537     0.11800
H3328       H  0.58372785  0.27907521  0.39269928     0.13700
C3329       C  0.46179953  0.13799063  0.37647372    -0.06300
C3330       C  0.46564996  0.12214566  0.36294133    -0.06200
C3331       C  0.48566698  0.11673406  0.35807914    -0.24400
C3332       C  0.50205833  0.12713281  0.36666208     0.17800
C3333       C  0.49829125  0.14269511  0.38068090     0.15000
C3334       C  0.47832408  0.14790458  0.38550926    -0.19400
C3335       C  0.51453445  0.15313008  0.38936929    -0.21200
C3336       C  0.53446274  0.14849002  0.38386640    -0.13800
C3337       C  0.53843668  0.13342148  0.36953427     0.02900
C3338       C  0.52211872  0.12258865  0.36119234    -0.25900
H3339       H  0.45326234  0.11427041  0.35584917     0.07900
H3340       H  0.48833170  0.10466093  0.34735020     0.11500
H3341       H  0.47572342  0.16009115  0.39613798     0.11500
H3342       H  0.51180007  0.16512204  0.40017828     0.11200
H3343       H  0.54670727  0.15703584  0.39040100     0.11800
H3344       H  0.52498917  0.11081478  0.35017537     0.13700
C3345       C  0.61941465  0.21733652  0.27148869    -0.06300
C3346       C  0.63228202  0.23364712  0.27532272    -0.06200
C3347       C  0.63139188  0.25093491  0.26327534    -0.24400
C3348       C  0.61762778  0.25207238  0.24725043     0.17800
C3349       C  0.60349783  0.23638925  0.24442073     0.15000
C3350       C  0.60440693  0.21915849  0.25666332    -0.19400
C3351       C  0.58980128  0.23744072  0.22835306    -0.21200
C3352       C  0.59164461  0.25263307  0.21390950    -0.13800
C3353       C  0.60697596  0.26709001  0.21556246     0.02900
C3354       C  0.61897037  0.26763840  0.23297461    -0.25900
H3355       H  0.64386232  0.23255822  0.28683902     0.07900
H3356       H  0.64220860  0.26287099  0.26576524     0.11500
H3357       H  0.59427310  0.20668504  0.25385344     0.11500
H3358       H  0.57865629  0.22575019  0.22616059     0.11200
H3359       H  0.58201318  0.25222704  0.20069310     0.11800
H3360       H  0.63076423  0.27882605  0.23433799     0.13700
C3361       C  0.70951103  0.12996615  0.26691818    -0.06300
C3362       C  0.72525841  0.14385384  0.26912935    -0.06200
C3363       C  0.74094484  0.14437469  0.25502122    -0.24400
C3364       C  0.74095342  0.13104661  0.23857811     0.17800
C3365       C  0.72579263  0.11618099  0.23710670     0.15000
C3366       C  0.71033822  0.11559785  0.25143087    -0.19400
C3367       C  0.72554014  0.10300072  0.22060937    -0.21200
C3368       C  0.73931919  0.10544417  0.20493768    -0.13800
C3369       C  0.75371766  0.12085994  0.20574771     0.02900
C3370       C  0.75506231  0.13308894  0.22296750    -0.25900
H3371       H  0.72480725  0.15506539  0.28101793     0.07900
H3372       H  0.75248763  0.15580827  0.25642026     0.11500
H3373       H  0.69824955  0.10474262  0.24980327     0.11500
H3374       H  0.71410725  0.09143356  0.21937318     0.11200
H3375       H  0.73826817  0.09571548  0.19184816     0.11800
H3376       H  0.76616877  0.14502435  0.22362170     0.13700
C3377       C  0.54483818  0.14338113  0.26639527    -0.06300
C3378       C  0.54627521  0.15791949  0.25098626    -0.06200
C3379       C  0.53067476  0.16048738  0.23712171    -0.24400
C3380       C  0.51349862  0.14839072  0.23834388     0.17800
C3381       C  0.51106494  0.13501098  0.25483226     0.15000
C3382       C  0.52670459  0.13281627  0.26902203    -0.19400
C3383       C  0.49380848  0.12287179  0.25582387    -0.21200
C3384       C  0.48024405  0.12246566  0.23962315    -0.13800
C3385       C  0.48374202  0.13434049  0.22240232     0.02900
C3386       C  0.49964047  0.14819920  0.22244193    -0.25900
H3387       H  0.55996364  0.16653468  0.24894043     0.07900
H3388       H  0.53262080  0.17100896  0.22471731     0.11500
H3389       H  0.52543238  0.12170717  0.28100278     0.11500
H3390       H  0.49151110  0.11274056  0.26848190     0.11200
H3391       H  0.46788349  0.11186018  0.23997110     0.11800
H3392       H  0.50221016  0.15768152  0.20931898     0.13700
C3393       C  0.63129898  0.99029119  0.22002982    -0.06300
C3394       C  0.61877338  0.98696220  0.23682652    -0.06200
C3395       C  0.61831382  0.00081227  0.25275100    -0.24400
C3396       C  0.63022269  0.01822309  0.25192073     0.17800
C3397       C  0.64391921  0.02079631  0.23572617     0.15000
C3398       C  0.64459802  0.00665192  0.22010334    -0.19400
C3399       C  0.65567948  0.03821595  0.23461178    -0.21200
C3400       C  0.65274778  0.05372617  0.24849303    -0.13800
C3401       C  0.63822283  0.05193594  0.26384675     0.02900
C3402       C  0.62769351  0.03374255  0.26614057    -0.25900
H3403       H  0.60851502  0.97431091  0.23713108     0.07900
H3404       H  0.60786753  0.99847533  0.26513081     0.11500
H3405       H  0.65447969  0.00919640  0.20728814     0.11500
H3406       H  0.66636540  0.04031415  0.22238480     0.11200
H3407       H  0.66123925  0.06752681  0.24665839     0.11800
H3408       H  0.61650810  0.03224899  0.27801137     0.13700
C3409       C  0.12880067  0.21478028  0.39870879    -0.06300
C3410       C  0.14244077  0.21790347  0.38279229    -0.06200
C3411       C  0.14735516  0.23751662  0.37665084    -0.24400
C3412       C  0.13861128  0.25440151  0.38622820     0.17800
C3413       C  0.12448541  0.25151048  0.40191008     0.15000
C3414       C  0.11970392  0.23173654  0.40807539    -0.19400
C3415       C  0.11563417  0.26846812  0.41132246    -0.21200
C3416       C  0.12104207  0.28811214  0.40552942    -0.13800
C3417       C  0.13543576  0.29115765  0.39027130     0.02900
C3418       C  0.14398723  0.27411841  0.38056116    -0.25900
H3419       H  0.14962215  0.20517488  0.37533770     0.07900
H3420       H  0.15817619  0.23948147  0.36453792     0.11500
H3421       H  0.10903672  0.22957340  0.42029662     0.11500
H3422       H  0.10469620  0.26653551  0.42333464     0.11200
H3423       H  0.11424805  0.30090184  0.41323450     0.11800
H3424       H  0.15505818  0.27615681  0.36868249     0.13700
C3425       C  0.21119737  0.13856967  0.39439612    -0.06300
C3426       C  0.21502450  0.15209321  0.37855830    -0.06200
C3427       C  0.23505331  0.15721052  0.37363849    -0.24400
C3428       C  0.25149426  0.14884632  0.38447280     0.17800
C3429       C  0.24773864  0.13524302  0.40035479     0.15000
C3430       C  0.22778889  0.13032567  0.40520015    -0.19400
C3431       C  0.26398610  0.12669715  0.41119924    -0.21200
C3432       C  0.28394940  0.13163326  0.40640081    -0.13800
C3433       C  0.28798689  0.14534870  0.39082768     0.02900
C3434       C  0.27160680  0.15386024  0.37985019    -0.25900
H3435       H  0.20263228  0.15864214  0.37003472     0.07900
H3436       H  0.23769548  0.16769156  0.36136157     0.11500
H3437       H  0.22528570  0.11988870  0.41755250     0.11500
H3438       H  0.26123687  0.11622805  0.42346980     0.11200
H3439       H  0.29619468  0.12503474  0.41510848     0.11800
H3440       H  0.27448456  0.16445331  0.36771629     0.13700
C3441       C  0.13655696  0.20448707  0.50425262    -0.06300
C3442       C  0.15198585  0.20396193  0.51878135    -0.06200
C3443       C  0.15309383  0.21897761  0.53342444    -0.24400
C3444       C  0.13857916  0.23448557  0.53386370     0.17800
C3445       C  0.12366967  0.23572984  0.51859331     0.15000
C3446       C  0.12297003  0.22085677  0.50365776    -0.19400
C3447       C  0.10901185  0.25113994  0.51922710    -0.21200
C3448       C  0.10850299  0.26456682  0.53544008    -0.13800
C3449       C  0.12262856  0.26265802  0.55113298     0.02900
C3450       C  0.13802079  0.24805629  0.54995494    -0.25900
H3451       H  0.16268943  0.19149341  0.51931221     0.07900
H3452       H  0.16470147  0.21793657  0.54494024     0.11500
H3453       H  0.11098986  0.22127946  0.49248580     0.11500
H3454       H  0.09748327  0.25229496  0.50764522     0.11200
H3455       H  0.09647637  0.27574531  0.53622473     0.11800
H3456       H  0.14901324  0.24667040  0.56205131     0.13700
C3457       C  0.21523054  0.12902561  0.49218330    -0.06300
C3458       C  0.23060859  0.11445123  0.48993025    -0.06200
C3459       C  0.24730217  0.11444829  0.50283421    -0.24400
C3460       C  0.24874752  0.12904385  0.51807838     0.17800
C3461       C  0.23406221  0.14468909  0.51928094     0.15000
C3462       C  0.21750023  0.14466013  0.50619459    -0.19400
C3463       C  0.23527042  0.15916523  0.53459806    -0.21200
C3464       C  0.24969084  0.15702837  0.54976449    -0.13800
C3465       C  0.26333425  0.14067012  0.54954168     0.02900
C3466       C  0.26360710  0.12736309  0.53308300    -0.25900
H3467       H  0.22906198  0.10228491  0.47913626     0.07900
H3468       H  0.25845026  0.10241234  0.50162159     0.11500
H3469       H  0.20569294  0.15603006  0.50780221     0.11500
H3470       H  0.22427889  0.17137430  0.53557594     0.11200
H3471       H  0.24947798  0.16754389  0.56228746     0.11800
H3472       H  0.27408137  0.11466526  0.53294126     0.13700
C3473       C  0.99002448  0.11987330  0.55230433    -0.06300
C3474       C  0.98503271  0.12978873  0.53418607    -0.06200
C3475       C  0.99858235  0.12965704  0.51795589    -0.24400
C3476       C  0.01738776  0.11985699  0.51978329     0.17800
C3477       C  0.02180830  0.10868693  0.53748990     0.15000
C3478       C  0.00796804  0.10848129  0.55343975    -0.19400
C3479       C  0.04055934  0.09898597  0.53955041    -0.21200
C3480       C  0.05537333  0.10148404  0.52485068    -0.13800
C3481       C  0.05165232  0.11360437  0.50776881     0.02900
C3482       C  0.03231620  0.12205979  0.50486410    -0.25900
H3483       H  0.97111246  0.13842301  0.53290022     0.07900
H3484       H  0.99479447  0.13807025  0.50440025     0.11500
H3485       H  0.01185479  0.10056250  0.56727636     0.11500
H3486       H  0.04411108  0.09024702  0.55296540     0.11200
H3487       H  0.07007106  0.09458784  0.52731668     0.11800
H3488       H  0.02927818  0.13131329  0.49166267     0.13700
C3489       C  0.12222649  0.03975022  0.49088002    -0.06300
C3490       C  0.13431811  0.02263360  0.48712194    -0.06200
C3491       C  0.13271626  0.00562337  0.49950485    -0.24400
C3492       C  0.11915508  0.00578861  0.51578521     0.17800
C3493       C  0.10543283  0.02216291  0.51807323     0.15000
C3494       C  0.10686164  0.03889518  0.50536597    -0.19400
C3495       C  0.09200022  0.02258011  0.53437044    -0.21200
C3496       C  0.09400578  0.00837532  0.54972715    -0.13800
C3497       C  0.10921763  0.99347547  0.54873056     0.02900
C3498       C  0.12060519  0.99114897  0.53101420    -0.25900
H3499       H  0.14604142  0.02298823  0.47570933     0.07900
H3500       H  0.14311886  0.99307093  0.49732884     0.11500
H3501       H  0.09722986  0.05199151  0.50796664     0.11500
H3502       H  0.08116630  0.03483903  0.53611712     0.11200
H3503       H  0.08474686  0.01004505  0.56312962     0.11800
H3504       H  0.13221109  0.97950716  0.53013609     0.13700
C3505       C  0.86102128  0.79217877  0.62158479    -0.06300
C3506       C  0.84821592  0.78907186  0.63818450    -0.06200
C3507       C  0.84267765  0.76935117  0.64380329    -0.24400
C3508       C  0.84992748  0.75245500  0.63294523     0.17800
C3509       C  0.86266718  0.75550353  0.61617998     0.15000
C3510       C  0.86795622  0.77518705  0.61059475    -0.19400
C3511       C  0.87014034  0.73881160  0.60531242    -0.21200
C3512       C  0.86519166  0.71913587  0.61108102    -0.13800
C3513       C  0.85247193  0.71577521  0.62765317     0.02900
C3514       C  0.84479285  0.73258069  0.63851076    -0.25900
H3515       H  0.84265567  0.80180686  0.64687478     0.07900
H3516       H  0.83286402  0.76729976  0.65672688     0.11500
H3517       H  0.87776018  0.77718230  0.59764228     0.11500
H3518       H  0.87989996  0.74097848  0.59235701     0.11200
H3519       H  0.87109776  0.70654450  0.60239640     0.11800
H3520       H  0.83492670  0.73020461  0.65134650     0.13700
C3521       C  0.78612327  0.87673312  0.61782514    -0.06300
C3522       C  0.78257281  0.86650374  0.63602442    -0.06200
C3523       C  0.76279366  0.86317822  0.64268058    -0.24400
C3524       C  0.74619043  0.87001499  0.63124739     0.17800
C3525       C  0.74945951  0.88070131  0.61313408     0.15000
C3526       C  0.76940787  0.88402955  0.60656127    -0.19400
C3527       C  0.73270099  0.88750943  0.60179103    -0.21200
C3528       C  0.71287902  0.88324793  0.60808488    -0.13800
C3529       C  0.70955095  0.87212107  0.62580795     0.02900
C3530       C  0.72637723  0.86590596  0.63744462    -0.25900
H3531       H  0.79508520  0.86085602  0.64499563     0.07900
H3532       H  0.76047383  0.85500123  0.65666707     0.11500
H3533       H  0.77188075  0.89206537  0.59251864     0.11500
H3534       H  0.73493704  0.89578354  0.58785350     0.11200
H3535       H  0.70024862  0.88809072  0.59882540     0.11800
H3536       H  0.72410248  0.85739388  0.65124879     0.13700
C3537       C  0.95946770  0.88520654  0.62328699    -0.06300
C3538       C  0.96250218  0.90159416  0.63630179    -0.06200
C3539       C  0.98216896  0.90788522  0.64098813    -0.24400
C3540       C  0.99914030  0.89788023  0.63274361     0.17800
C3541       C  0.99630243  0.88104173  0.62009894     0.15000
C3542       C  0.97656645  0.87479947  0.61554057    -0.19400
C3543       C  0.01324441  0.87097567  0.61189728    -0.21200
C3544       C  0.03286926  0.87774910  0.61591650    -0.13800
C3545       C  0.03590966  0.89471098  0.62818674     0.02900
C3546       C  0.01887281  0.90459310  0.63668076    -0.25900
H3547       H  0.94969619  0.90984354  0.64244004     0.07900
H3548       H  0.98410545  0.92080483  0.65080144     0.11500
H3549       H  0.97456026  0.86201613  0.60555839     0.11500
H3550       H  0.01130330  0.85797740  0.60219013     0.11200
H3551       H  0.04563592  0.86986351  0.60925364     0.11800
H3552       H  0.02091399  0.91766911  0.64626646     0.13700
C3553       C  0.87589837  0.96595072  0.61572564    -0.06300
C3554       C  0.88415339  0.96997008  0.63478878    -0.06200
C3555       C  0.88676041  0.98992518  0.64129062    -0.24400
C3556       C  0.88124476  0.00628837  0.62882046     0.17800
C3557       C  0.87263830  0.00258265  0.60973889     0.15000
C3558       C  0.86999051  0.98245228  0.60333247    -0.19400
C3559       C  0.86717337  0.01909724  0.59733603    -0.21200
C3560       C  0.87082099  0.03907953  0.60354056    -0.13800
C3561       C  0.88000880  0.04284634  0.62223475     0.02900
C3562       C  0.88473674  0.02627965  0.63492623    -0.25900
H3563       H  0.88864228  0.95767576  0.64466700     0.07900
H3564       H  0.89332374  0.99256860  0.65603008     0.11500
H3565       H  0.86351188  0.97966579  0.58858012     0.11500
H3566       H  0.86052055  0.01653712  0.58262401     0.11200
H3567       H  0.86725669  0.05146632  0.59341943     0.11800
H3568       H  0.89177439  0.02891635  0.64945856     0.13700
C3569       C  0.85595198  0.12390309  0.21839058    -0.06300
C3570       C  0.87125038  0.10972654  0.22258247    -0.06200
C3571       C  0.87645975  0.10512380  0.24254276    -0.24400
C3572       C  0.86660384  0.11476762  0.25872855     0.17800
C3573       C  0.85124268  0.12913410  0.25487652     0.15000
C3574       C  0.84592729  0.13355007  0.23470280    -0.19400
C3575       C  0.84160084  0.13879959  0.27129173    -0.21200
C3576       C  0.84726992  0.13431913  0.29132447    -0.13800
C3577       C  0.86256753  0.12000906  0.29523563     0.02900
C3578       C  0.87201929  0.11027570  0.27870792    -0.25900
H3579       H  0.87909208  0.10204602  0.21040830     0.07900
H3580       H  0.88827361  0.09403029  0.24532877     0.11500
H3581       H  0.83407329  0.14455033  0.23172594     0.11500
H3582       H  0.82973008  0.14985499  0.26863192     0.11200
H3583       H  0.83964858  0.14190677  0.30368405     0.11800
H3584       H  0.88384682  0.09914716  0.28131543     0.13700
C3585       C  0.71180719  0.12582801  0.37189434    -0.06300
C3586       C  0.71578480  0.11332395  0.38854024    -0.06200
C3587       C  0.73576282  0.10983747  0.39481352    -0.24400
C3588       C  0.75200078  0.11877684  0.38447764     0.17800
C3589       C  0.74812023  0.13170111  0.36798684     0.15000
C3590       C  0.72813678  0.13511945  0.36185058    -0.19400
C3591       C  0.76430470  0.14068628  0.35763624    -0.21200
C3592       C  0.78429762  0.13629743  0.36313338    -0.13800
C3593       C  0.78833512  0.12285303  0.37901380     0.02900
C3594       C  0.77206666  0.11455773  0.38995306    -0.25900
H3595       H  0.70351471  0.10611369  0.39653769     0.07900
H3596       H  0.73854127  0.09992463  0.40756464     0.11500
H3597       H  0.72538158  0.14491352  0.34899884     0.11500
H3598       H  0.76150284  0.15071741  0.34498248     0.11200
H3599       H  0.79654992  0.14280258  0.35452348     0.11800
H3600       H  0.77500221  0.10428365  0.40239307     0.13700
C3601       C  0.03754586  0.12596546  0.39830395    -0.06300
C3602       C  0.03415172  0.11610301  0.37988612    -0.06200
C3603       C  0.01443192  0.11321157  0.37279442    -0.24400
C3604       C  0.99769180  0.12013176  0.38398509     0.17800
C3605       C  0.00084701  0.13060217  0.40223602     0.15000
C3606       C  0.02072413  0.13343961  0.40927370    -0.19400
C3607       C  0.98403466  0.13767397  0.41329102    -0.21200
C3608       C  0.96427526  0.13378019  0.40668347    -0.13800
C3609       C  0.96098847  0.12265519  0.38897523     0.02900
C3610       C  0.97785728  0.11626447  0.37750020    -0.25900
H3611       H  0.04674733  0.11039237  0.37106983     0.07900
H3612       H  0.01226145  0.10527910  0.35866813     0.11500
H3613       H  0.02305189  0.14125292  0.42344619     0.11500
H3614       H  0.98616593  0.14583774  0.42729123     0.11200
H3615       H  0.95160578  0.13880596  0.41579569     0.11800
H3616       H  0.97556528  0.10779791  0.36369731     0.13700
C3617       C  0.88180192  0.12088817  0.46896918    -0.06300
C3618       C  0.89472587  0.13708261  0.47294344    -0.06200
C3619       C  0.89916518  0.14248835  0.49294853    -0.24400
C3620       C  0.89068678  0.13181273  0.50925272     0.17800
C3621       C  0.87731862  0.11582015  0.50538431     0.15000
C3622       C  0.87300304  0.11050570  0.48537600    -0.19400
C3623       C  0.86866902  0.10519822  0.52158517    -0.21200
C3624       C  0.87347121  0.11016310  0.54154219    -0.13800
C3625       C  0.88710733  0.12571560  0.54561164     0.02900
C3626       C  0.89553541  0.13661366  0.52933819    -0.25900
H3627       H  0.90161493  0.14532509  0.46063623     0.07900
H3628       H  0.90939453  0.15488126  0.49567476     0.11500
H3629       H  0.86286039  0.09803860  0.48263541     0.11500
H3630       H  0.85836120  0.09288029  0.51880944     0.11200
H3631       H  0.86692164  0.10152053  0.55376230     0.11800
H3632       H  0.90604721  0.14872765  0.53228335     0.13700
C3633       C  0.88612099  0.95267346  0.50886351    -0.06300
C3634       C  0.90050577  0.95028037  0.49338341    -0.06200
C3635       C  0.90263261  0.96499665  0.47844397    -0.24400
C3636       C  0.89033254  0.98232430  0.47867033     0.17800
C3637       C  0.87670252  0.98546762  0.49486961     0.15000
C3638       C  0.87482798  0.97069718  0.50999700    -0.19400
C3639       C  0.86447856  0.00286629  0.49510773    -0.21200
C3640       C  0.86503962  0.01652095  0.47900886    -0.13800
C3641       C  0.87777961  0.01298184  0.46237027     0.02900
C3642       C  0.89078854  0.99609761  0.46254556    -0.25900
H3643       H  0.90959127  0.93663156  0.49236352     0.07900
H3644       H  0.91334792  0.96244827  0.46629658     0.11500
H3645       H  0.86376203  0.97271779  0.52193529     0.11500
H3646       H  0.85401388  0.00559302  0.50743321     0.11200
H3647       H  0.85489427  0.02944904  0.47921944     0.11800
H3648       H  0.90077230  0.99331201  0.44982627     0.13700
C3649       C  0.11760706  0.87236612  0.22011809    -0.06300
C3650       C  0.10159644  0.88580483  0.22406437    -0.06200
C3651       C  0.09667328  0.89097091  0.24404037    -0.24400
C3652       C  0.10767298  0.88274281  0.26035665     0.17800
C3653       C  0.12427697  0.86984868  0.25654493     0.15000
C3654       C  0.12919417  0.86488605  0.23650541    -0.19400
C3655       C  0.13525029  0.86159766  0.27286347    -0.21200
C3656       C  0.12934101  0.86548317  0.29286718    -0.13800
C3657       C  0.11244985  0.87778519  0.29685859     0.02900
C3658       C  0.10198317  0.88670661  0.28041312    -0.25900
H3659       H  0.09248427  0.89174018  0.21180144     0.07900
H3660       H  0.08391368  0.90097790  0.24675996     0.11500
H3661       H  0.14176063  0.85463638  0.23373018     0.11500
H3662       H  0.14813572  0.85175074  0.27014086     0.11200
H3663       H  0.13771487  0.85858403  0.30515316     0.11800
H3664       H  0.08897862  0.89639524  0.28314570     0.13700
C3665       C  0.11512141  0.71503618  0.37140639    -0.06300
C3666       C  0.10144817  0.71908768  0.38710627    -0.06200
C3667       C  0.09679781  0.73910272  0.39246697    -0.24400
C3668       C  0.10581812  0.75538734  0.38226893     0.17800
C3669       C  0.11981426  0.75152809  0.36668133     0.15000
C3670       C  0.12430631  0.73143809  0.36133670    -0.19400
C3671       C  0.12892294  0.76783856  0.35658377    -0.21200
C3672       C  0.12389007  0.78786734  0.36162282    -0.13800
C3673       C  0.10959780  0.79188466  0.37676306     0.02900
C3674       C  0.10085219  0.77546170  0.38719168    -0.25900
H3675       H  0.09418806  0.70681939  0.39504958     0.07900
H3676       H  0.08602513  0.74185553  0.40450328     0.11500
H3677       H  0.13497001  0.72861462  0.34921295     0.11500
H3678       H  0.13975504  0.76509353  0.34459736     0.11200
H3679       H  0.13075660  0.80015605  0.35335956     0.11800
H3680       H  0.08987215  0.77826245  0.39903908     0.13700
C3681       C  0.10626300  0.96571576  0.39361631    -0.06300
C3682       C  0.12243026  0.96925710  0.40673598    -0.06200
C3683       C  0.12814970  0.98908226  0.41117681    -0.24400
C3684       C  0.11786091  0.00561426  0.40243205     0.17800
C3685       C  0.10144782  0.00228477  0.38938662     0.15000
C3686       C  0.09570313  0.98239635  0.38517011    -0.19400
C3687       C  0.09123039  0.01889334  0.38062676    -0.21200
C3688       C  0.09743078  0.03872037  0.38461865    -0.13800
C3689       C  0.11384547  0.04214267  0.39749009     0.02900
C3690       C  0.12386144  0.02542054  0.40640891    -0.25900
H3691       H  0.13066979  0.95673969  0.41346965     0.07900
H3692       H  0.14074822  0.99149714  0.42130727     0.11500
H3693       H  0.08310246  0.97996468  0.37504568     0.11500
H3694       H  0.07852358  0.01653348  0.37062396     0.11200
H3695       H  0.08938869  0.05129305  0.37777053     0.11800
H3696       H  0.13654092  0.02773404  0.41647155     0.13700
C3697       C  0.95915335  0.02076139  0.38597201    -0.06300
C3698       C  0.97591354  0.02456790  0.37354587    -0.06200
C3699       C  0.99232114  0.01113072  0.37329174    -0.24400
C3700       C  0.99203812  0.99373610  0.38538815     0.17800
C3701       C  0.97596010  0.99088556  0.39919049     0.15000
C3702       C  0.95979552  0.00458471  0.39959444    -0.19400
C3703       C  0.97543594  0.97351683  0.41119718    -0.21200
C3704       C  0.98963918  0.95820054  0.40822220    -0.13800
C3705       C  0.00472125  0.96016522  0.39342371     0.02900
C3706       C  0.00659654  0.97841157  0.38282044    -0.25900
H3707       H  0.97576269  0.03714789  0.36307585     0.07900
H3708       H  0.00460651  0.01370155  0.36279263     0.11500
H3709       H  0.94700731  0.00178320  0.40944169     0.11500
H3710       H  0.96334963  0.97123140  0.42200126     0.11200
H3711       H  0.98817930  0.94433851  0.41679708     0.11800
H3712       H  0.01825053  0.97999593  0.37142167     0.13700
C3713       C  0.11545538  0.89287369  0.54682819    -0.06300
C3714       C  0.10217491  0.87670191  0.54396043    -0.06200
C3715       C  0.09695417  0.87044631  0.52436396    -0.24400
C3716       C  0.10494360  0.88022480  0.50725392     0.17800
C3717       C  0.11862538  0.89620607  0.50996607     0.15000
C3718       C  0.12373766  0.90239740  0.52961977    -0.19400
C3719       C  0.12680931  0.90591588  0.49296519    -0.21200
C3720       C  0.12125995  0.90009098  0.47340558    -0.13800
C3721       C  0.10729061  0.88454652  0.47040245     0.02900
C3722       C  0.09932077  0.87453573  0.48750746    -0.25900
H3723       H  0.09563926  0.86906876  0.55684152     0.07900
H3724       H  0.08650336  0.85806733  0.52258960     0.11500
H3725       H  0.13409671  0.91485119  0.53146360     0.11500
H3726       H  0.13737624  0.91819089  0.49479848     0.11200
H3727       H  0.12758533  0.90805472  0.46061699     0.11800
H3728       H  0.08859941  0.86242333  0.48547633     0.13700
C3729       C  0.96141757  0.88103040  0.52383638    -0.06300
C3730       C  0.97849296  0.86878799  0.52728211    -0.06200
C3731       C  0.99458754  0.86897283  0.51360049    -0.24400
C3732       C  0.99352551  0.88119885  0.49629782     0.17800
C3733       C  0.97721406  0.89497537  0.49397498     0.15000
C3734       C  0.96153834  0.89513287  0.50804566    -0.19400
C3735       C  0.97579549  0.90698419  0.47663429    -0.21200
C3736       C  0.98928190  0.90395078  0.46079882    -0.13800
C3737       C  0.00455665  0.88915375  0.46227433     0.02900
C3738       C  0.00740055  0.87864992  0.48049046    -0.25900
H3739       H  0.97871161  0.85797979  0.53957241     0.07900
H3740       H  0.00711025  0.85851782  0.51576638     0.11500
H3741       H  0.94849485  0.90488423  0.50557211     0.11500
H3742       H  0.96348528  0.91774844  0.47475841     0.11200
H3743       H  0.98711097  0.91247618  0.44698352     0.11800
H3744       H  0.01926021  0.86729397  0.48171888     0.13700
C3745       C  0.79764905  0.85904271  0.51442198    -0.06300
C3746       C  0.80041463  0.84506077  0.49866626    -0.06200
C3747       C  0.78569668  0.84290612  0.48380606    -0.24400
C3748       C  0.76815373  0.85485998  0.48446356     0.17800
C3749       C  0.76426527  0.86718519  0.50150589     0.15000
C3750       C  0.77893434  0.86888440  0.51664580    -0.19400
C3751       C  0.74669371  0.87912523  0.50212849    -0.21200
C3752       C  0.73429196  0.88057344  0.48514359    -0.13800
C3753       C  0.73925159  0.86997198  0.46743586     0.02900
C3754       C  0.75544548  0.85614156  0.46761492    -0.25900
H3755       H  0.81456757  0.83688272  0.49698945     0.07900
H3756       H  0.78872103  0.83305885  0.47106867     0.11500
H3757       H  0.77658767  0.87943098  0.52896957     0.11500
H3758       H  0.74329160  0.88839710  0.51520230     0.11200
H3759       H  0.72159502  0.89101217  0.48544087     0.11800
H3760       H  0.75911087  0.84759243  0.45411566     0.13700
C3761       C  0.63922035  0.87359895  0.47166359    -0.06300
C3762       C  0.62232269  0.86130509  0.47481977    -0.06200
C3763       C  0.61614829  0.85636753  0.49447903    -0.24400
C3764       C  0.62673912  0.86368866  0.51132836     0.17800
C3765       C  0.64358736  0.87626325  0.50833386     0.15000
C3766       C  0.64974747  0.88102805  0.48859332    -0.19400
C3767       C  0.65405887  0.88379997  0.52514357    -0.21200
C3768       C  0.64805767  0.87873172  0.54478896    -0.13800
C3769       C  0.63166613  0.86582095  0.54796815     0.02900
C3770       C  0.62095522  0.85848017  0.53110397    -0.25900
H3771       H  0.61394532  0.85544221  0.46210387     0.07900
H3772       H  0.60312759  0.84676130  0.49650489     0.11500
H3773       H  0.66281833  0.89055810  0.48645119     0.11500
H3774       H  0.66702257  0.89348384  0.52308889     0.11200
H3775       H  0.65660050  0.88442356  0.55748066     0.11800
H3776       H  0.60819527  0.84856703  0.53336491     0.13700
C3777       C  0.63715854  0.79333598  0.39339072    -0.06300
C3778       C  0.62209916  0.78957185  0.40774534    -0.06200
C3779       C  0.61657227  0.76964159  0.41219194    -0.24400
C3780       C  0.62600028  0.75326198  0.40227612     0.17800
C3781       C  0.64092109  0.75691616  0.38759278     0.15000
C3782       C  0.64636119  0.77684823  0.38327475    -0.19400
C3783       C  0.65031922  0.74057470  0.37761530    -0.21200
C3784       C  0.64513262  0.72064387  0.38236067    -0.13800
C3785       C  0.63054388  0.71681647  0.39718143     0.02900
C3786       C  0.62092721  0.73328344  0.40694583    -0.25900
H3787       H  0.61488141  0.80195633  0.41572643     0.07900
H3788       H  0.60506188  0.76701793  0.42350907     0.11500
H3789       H  0.65797167  0.77945527  0.37204590     0.11500
H3790       H  0.66181152  0.74321495  0.36628162     0.11200
H3791       H  0.65274002  0.70827153  0.37472270     0.11800
H3792       H  0.60954495  0.73060024  0.41838876     0.13700
C3793       C  0.63766839  0.96662816  0.37744821    -0.06300
C3794       C  0.62272054  0.97004713  0.36279752    -0.06200
C3795       C  0.61723050  0.98984345  0.35731233    -0.24400
C3796       C  0.62655302  0.00654180  0.36644563     0.17800
C3797       C  0.64111341  0.00328304  0.38166766     0.15000
C3798       C  0.64653682  0.98341817  0.38705192    -0.19400
C3799       C  0.65031129  0.01994917  0.39095069    -0.21200
C3800       C  0.64550377  0.03971316  0.38484959    -0.13800
C3801       C  0.63148997  0.04315833  0.36930234     0.02900
C3802       C  0.62186812  0.02641562  0.36036650    -0.25900
H3803       H  0.61566526  0.95744944  0.35523735     0.07900
H3804       H  0.60592653  0.99209607  0.34567071     0.11500
H3805       H  0.65798554  0.98106676  0.39854383     0.11500
H3806       H  0.66146050  0.01768402  0.40274130     0.11200
H3807       H  0.65305965  0.05226931  0.39198422     0.11800
H3808       H  0.61087427  0.02880887  0.34844764     0.13700
C3809       C  0.79216501  0.01856073  0.37845240    -0.06300
C3810       C  0.77523777  0.02336234  0.39044512    -0.06200
C3811       C  0.75890047  0.01012023  0.39160966    -0.24400
C3812       C  0.75930951  0.99189782  0.38082673     0.17800
C3813       C  0.77568081  0.98781854  0.36761225     0.15000
C3814       C  0.79183482  0.00124061  0.36636426    -0.19400
C3815       C  0.77628545  0.96978287  0.35672584    -0.21200
C3816       C  0.76157055  0.95526878  0.35986394    -0.13800
C3817       C  0.74589716  0.95848399  0.37390263     0.02900
C3818       C  0.74434327  0.97719220  0.38380898    -0.25900
H3819       H  0.77507955  0.03680646  0.39973562     0.07900
H3820       H  0.74640579  0.01369860  0.40162459     0.11500
H3821       H  0.80471832  0.99756074  0.35686030     0.11500
H3822       H  0.78861800  0.96651596  0.34640059     0.11200
H3823       H  0.76295949  0.94109842  0.35180502     0.11800
H3824       H  0.73228953  0.97982128  0.39462356     0.13700
C3825       C  0.63592220  0.88240301  0.29863107    -0.06300
C3826       C  0.61887793  0.89461414  0.29493964    -0.06200
C3827       C  0.61267155  0.89868692  0.27506095    -0.24400
C3828       C  0.62342263  0.89063405  0.25852095     0.17800
C3829       C  0.64030411  0.87798039  0.26202460     0.15000
C3830       C  0.64639507  0.87394350  0.28198437    -0.19400
C3831       C  0.65100875  0.86985422  0.24549077    -0.21200
C3832       C  0.64531861  0.87459558  0.22560705    -0.13800
C3833       C  0.62889457  0.88761388  0.22191614     0.02900
C3834       C  0.61785157  0.89534586  0.23854791    -0.25900
H3835       H  0.61049935  0.90118638  0.30739033     0.07900
H3836       H  0.59959675  0.90835495  0.27261294     0.11500
H3837       H  0.65954705  0.86438625  0.28450154     0.11500
H3838       H  0.66401000  0.86008605  0.24794753     0.11200
H3839       H  0.65411490  0.86858569  0.21315866     0.11800
H3840       H  0.60506103  0.90537127  0.23597315     0.13700
C3841       C  0.70896235  0.63162424  0.39316350    -0.06300
C3842       C  0.71289396  0.64592569  0.37806521    -0.06200
C3843       C  0.73285051  0.65020715  0.37248129    -0.24400
C3844       C  0.74919440  0.64023948  0.38190870     0.17800
C3845       C  0.74543319  0.62532727  0.39660640     0.15000
C3846       C  0.72537972  0.62106964  0.40206163    -0.19400
C3847       C  0.76181309  0.61532886  0.40596889    -0.21200
C3848       C  0.78179693  0.62053207  0.40125905    -0.13800
C3849       C  0.78570979  0.63577770  0.38709198     0.02900
C3850       C  0.76922948  0.64529329  0.37723085    -0.25900
H3851       H  0.70058938  0.65416976  0.37097019     0.07900
H3852       H  0.73552259  0.66162992  0.36107986     0.11500
H3853       H  0.72261208  0.60982523  0.41362117     0.11500
H3854       H  0.75916012  0.60375380  0.41721681     0.11200
H3855       H  0.79414216  0.61293927  0.40897209     0.11800
H3856       H  0.77193582  0.65700258  0.36612471     0.13700
C3857       C  0.78957424  0.73951323  0.38142362    -0.06300
C3858       C  0.77335976  0.73679807  0.36807189    -0.06200
C3859       C  0.75659709  0.74973729  0.36883408    -0.24400
C3860       C  0.75592855  0.76546227  0.38298120     0.17800
C3861       C  0.77169891  0.76735455  0.39727568     0.15000
C3862       C  0.78834778  0.75430067  0.39645143    -0.19400
C3863       C  0.77123345  0.78308655  0.41133827    -0.21200
C3864       C  0.75622473  0.79787425  0.41011929    -0.13800
C3865       C  0.74138101  0.79694711  0.39501434     0.02900
C3866       C  0.74058736  0.78015474  0.38218206    -0.25900
H3867       H  0.77410821  0.72537075  0.35639894     0.07900
H3868       H  0.74462569  0.74801049  0.35782486     0.11500
H3869       H  0.80079874  0.75626231  0.40690011     0.11500
H3870       H  0.78309233  0.78459711  0.42250613     0.11200
H3871       H  0.75688994  0.81067591  0.42027059     0.11800
H3872       H  0.72917216  0.77945434  0.37046523     0.13700
C3873       C  0.86244767  0.74604631  0.45931076    -0.06300
C3874       C  0.84903367  0.76244997  0.45698746    -0.06200
C3875       C  0.84673497  0.77667281  0.47230029    -0.24400
C3876       C  0.85806937  0.77488134  0.49005797     0.17800
C3877       C  0.87080144  0.75787552  0.49307796     0.15000
C3878       C  0.87269203  0.74334701  0.47773419    -0.19400
C3879       C  0.88233657  0.75642606  0.51083535    -0.21200
C3880       C  0.88251209  0.77245368  0.52462031    -0.13800
C3881       C  0.87099260  0.78996006  0.52084599     0.02900
C3882       C  0.85795071  0.79055523  0.50414661    -0.25900
H3883       H  0.84082234  0.76468828  0.44300745     0.07900
H3884       H  0.83682639  0.78958338  0.46984684     0.11500
H3885       H  0.88306990  0.73071216  0.47963518     0.11500
H3886       H  0.89205276  0.74341944  0.51350584     0.11200
H3887       H  0.89256616  0.77167751  0.53749852     0.11800
H3888       H  0.84877290  0.80392789  0.50128708     0.13700
C3889       C  0.85644588  0.63705327  0.54641655    -0.06300
C3890       C  0.87074588  0.65201060  0.54242472    -0.06200
C3891       C  0.87603733  0.65657080  0.52243791    -0.24400
C3892       C  0.86715758  0.64614801  0.50623148     0.17800
C3893       C  0.85313034  0.63074984  0.51011523     0.15000
C3894       C  0.84792996  0.62630370  0.53012116    -0.19400
C3895       C  0.84431564  0.62025792  0.49392346    -0.21200
C3896       C  0.84922579  0.62516376  0.47393001    -0.13800
C3897       C  0.86294487  0.64066093  0.46989894     0.02900
C3898       C  0.87191767  0.65100078  0.48620365    -0.25900
H3899       H  0.87741859  0.66047866  0.55467298     0.07900
H3900       H  0.88687662  0.66842030  0.51963288     0.11500
H3901       H  0.83696416  0.61456664  0.53295124     0.11500
H3902       H  0.83351329  0.60837787  0.49672873     0.11200
H3903       H  0.84213428  0.61705946  0.46167512     0.11800
H3904       H  0.88261878  0.66297680  0.48335976     0.13700
C3905       C  0.95976397  0.63849899  0.37891605    -0.06300
C3906       C  0.96424646  0.62152258  0.36706516    -0.06200
C3907       C  0.98438632  0.61631623  0.36284628    -0.24400
C3908       C  0.00032608  0.62800368  0.37044794     0.17800
C3909       C  0.99603096  0.64507627  0.38242929     0.15000
C3910       C  0.97582812  0.65021250  0.38653332    -0.19400
C3911       C  0.01201421  0.65672481  0.39005552    -0.21200
C3912       C  0.03216081  0.65152372  0.38573217    -0.13800
C3913       C  0.03655557  0.63469744  0.37362111     0.02900
C3914       C  0.02048645  0.62297040  0.36614253    -0.25900
H3915       H  0.95221208  0.61233541  0.36103518     0.07900
H3916       H  0.98750740  0.60315706  0.35360228     0.11500
H3917       H  0.97266419  0.66342419  0.39569711     0.11500
H3918       H  0.00892067  0.66992094  0.39925261     0.11200
H3919       H  0.04422516  0.66084456  0.39147743     0.11800
H3920       H  0.02363553  0.60988156  0.35679295     0.13700
C3921       C  0.95588857  0.73948087  0.37887375    -0.06300
C3922       C  0.97206694  0.73565759  0.39214009    -0.06200
C3923       C  0.98846526  0.74881378  0.39295873    -0.24400
C3924       C  0.98889797  0.76595194  0.38050858     0.17800
C3925       C  0.97327598  0.76905340  0.36619578     0.15000
C3926       C  0.95699875  0.75573806  0.36537439    -0.19400
C3927       C  0.97355282  0.78606278  0.35369004    -0.21200
C3928       C  0.98836688  0.80060750  0.35624733    -0.13800
C3929       C  0.00323150  0.79839330  0.37128932     0.02900
C3930       C  0.00396373  0.78061559  0.38285797    -0.25900
H3931       H  0.97158294  0.72307444  0.40258881     0.07900
H3932       H  0.00035964  0.74604324  0.40389505     0.11500
H3933       H  0.94467493  0.75865787  0.35493857     0.11500
H3934       H  0.96181007  0.78856882  0.34252563     0.11200
H3935       H  0.98764274  0.81408916  0.34697594     0.11800
H3936       H  0.01536251  0.77881375  0.39449881     0.13700
C3937       C  0.88096086  0.63291685  0.29703244    -0.06300
C3938       C  0.89827011  0.62127516  0.29302312    -0.06200
C3939       C  0.90401050  0.61738196  0.27299912    -0.24400
C3940       C  0.89253433  0.62515527  0.25679366     0.17800
C3941       C  0.87477657  0.63635440  0.26068646     0.15000
C3942       C  0.86905626  0.63999022  0.28071660    -0.19400
C3943       C  0.86335053  0.64422073  0.24450233    -0.21200
C3944       C  0.86974589  0.64137214  0.22451511    -0.13800
C3945       C  0.88759594  0.63056671  0.22048724     0.02900
C3946       C  0.89874623  0.62228409  0.23677692    -0.25900
H3947       H  0.90771403  0.61586642  0.30527894     0.07900
H3948       H  0.91769832  0.60872928  0.27017402     0.11500
H3949       H  0.85555231  0.64893545  0.28357579     0.11500
H3950       H  0.84963108  0.65282110  0.24732624     0.11200
H3951       H  0.86087545  0.64772327  0.21228462     0.11800
H3952       H  0.91253760  0.61378544  0.23396318     0.13700
C3953       C  0.86751107  0.96389222  0.15073390    -0.06300
C3954       C  0.85257406  0.96769522  0.13619826    -0.06200
C3955       C  0.84778920  0.98756050  0.13052890    -0.24400
C3956       C  0.85795093  0.00398063  0.13921345     0.17800
C3957       C  0.87331954  0.00044372  0.15351766     0.15000
C3958       C  0.87799668  0.98041932  0.15919663    -0.19400
C3959       C  0.88349113  0.01702283  0.16203533    -0.21200
C3960       C  0.87822696  0.03696347  0.15661193    -0.13800
C3961       C  0.86270696  0.04061097  0.14260680     0.02900
C3962       C  0.85279298  0.02388795  0.13392151    -0.25900
H3963       H  0.84429834  0.95533865  0.12952585     0.07900
H3964       H  0.83596279  0.99010288  0.11948239     0.11500
H3965       H  0.88966768  0.97774118  0.17037372     0.11500
H3966       H  0.89539922  0.01456627  0.17300468     0.11200
H3967       H  0.88611734  0.04946248  0.16347681     0.11800
H3968       H  0.84081191  0.02628657  0.12300769     0.13700
C3969       C  0.95878369  0.87112014  0.14825681    -0.06300
C3970       C  0.96241777  0.85646710  0.13337918    -0.06200
C3971       C  0.98227459  0.85193619  0.12727788    -0.24400
C3972       C  0.99878644  0.86205751  0.13590773     0.17800
C3973       C  0.99524736  0.87718744  0.15047098     0.15000
C3974       C  0.97534823  0.88158584  0.15652006    -0.19400
C3975       C  0.01169689  0.88742229  0.15902567    -0.21200
C3976       C  0.03158379  0.88236716  0.15356958    -0.13800
C3977       C  0.03536213  0.86696515  0.13951341     0.02900
C3978       C  0.01878177  0.85707116  0.13052617    -0.25900
H3979       H  0.94998301  0.84822094  0.12681836     0.07900
H3980       H  0.98474233  0.84031376  0.11601780     0.11500
H3981       H  0.97281157  0.89306190  0.16792587     0.11500
H3982       H  0.00918713  0.89914181  0.17017757     0.11200
H3983       H  0.04400323  0.89019403  0.16066322     0.11800
H3984       H  0.02141083  0.84521539  0.11953639     0.13700
C3985       C  0.87011763  0.01937757  0.29750878    -0.06300
C3986       C  0.88325993  0.02212555  0.28108006    -0.06200
C3987       C  0.88366183  0.00820994  0.26520637    -0.24400
C3988       C  0.87097922  0.99134857  0.26562452     0.17800
C3989       C  0.85653254  0.98949864  0.28127198     0.15000
C3990       C  0.85605472  0.00365037  0.29697052    -0.19400
C3991       C  0.84388317  0.97267125  0.28183832    -0.21200
C3992       C  0.84683792  0.95687172  0.26823252    -0.13800
C3993       C  0.86224984  0.95780899  0.25365391     0.02900
C3994       C  0.87351866  0.97557704  0.25164837    -0.25900
H3995       H  0.89411392  0.03427168  0.28112219     0.07900
H3996       H  0.89467865  0.01001147  0.25322724     0.11500
H3997       H  0.84566674  0.00161446  0.30948078     0.11500
H3998       H  0.83252191  0.97116828  0.29353851     0.11200
H3999       H  0.83770321  0.94346309  0.26976071     0.11800
H4000       H  0.88534776  0.97644918  0.24033973     0.13700
C4001       C  0.95435328  0.86048796  0.25001565    -0.06300
C4002       C  0.95276039  0.84551865  0.26498144    -0.06200
C4003       C  0.96792343  0.84308521  0.27934407    -0.24400
C4004       C  0.98467111  0.85582155  0.27902214     0.17800
C4005       C  0.98750207  0.86926042  0.26264058     0.15000
C4006       C  0.97244725  0.87115004  0.24786188    -0.19400
C4007       C  0.00422934  0.88211131  0.26253377    -0.21200
C4008       C  0.01661321  0.88332399  0.27955929    -0.13800
C4009       C  0.01248005  0.87151392  0.29667781     0.02900
C4010       C  0.99740884  0.85681294  0.29578419    -0.25900
H4011       H  0.93908269  0.83678139  0.26654692     0.07900
H4012       H  0.96573635  0.83245507  0.29159925     0.11500
H4013       H  0.97382583  0.88253799  0.23616561     0.11500
H4014       H  0.00682676  0.89227405  0.24997132     0.11200
H4015       H  0.02846000  0.89450720  0.27986181     0.11800
H4016       H  0.99443804  0.84737071  0.30883487     0.13700
C4017       C  0.88115154  0.73269800  0.29504292    -0.06300
C4018       C  0.86827959  0.72890175  0.27864101    -0.06200
C4019       C  0.86729319  0.74244356  0.26246608    -0.24400
C4020       C  0.87909439  0.75992249  0.26264719     0.17800
C4021       C  0.89358210  0.76256762  0.27813161     0.15000
C4022       C  0.89475198  0.74873431  0.29403471    -0.19400
C4023       C  0.90534670  0.77998152  0.27853610    -0.21200
C4024       C  0.90134317  0.79559588  0.26502623    -0.13800
C4025       C  0.88571485  0.79392059  0.25077319     0.02900
C4026       C  0.87545545  0.77558344  0.24876832    -0.25900
H4027       H  0.85785072  0.71639034  0.27904103     0.07900
H4028       H  0.85632881  0.73998103  0.25058924     0.11500
H4029       H  0.90495720  0.75149985  0.30652440     0.11500
H4030       H  0.91668973  0.78210483  0.29012385     0.11200
H4031       H  0.90973057  0.80949318  0.26651860     0.11800
H4032       H  0.86346842  0.77418682  0.23771079     0.13700
C4033       C  0.87975258  0.79049122  0.14840928    -0.06300
C4034       C  0.89319585  0.78753920  0.13226346    -0.06200
C4035       C  0.89879838  0.76792049  0.12631611    -0.24400
C4036       C  0.89103206  0.75094848  0.13642162     0.17800
C4037       C  0.87710845  0.75375274  0.15232010     0.15000
C4038       C  0.87157584  0.77342026  0.15815783    -0.19400
C4039       C  0.86918219  0.73684263  0.16235170    -0.21200
C4040       C  0.87528474  0.71726745  0.15692869    -0.13800
C4041       C  0.88951327  0.71427149  0.14148996     0.02900
C4042       C  0.89717255  0.73124661  0.13114953    -0.25900
H4043       H  0.89962133  0.80036769  0.12447567     0.07900
H4044       H  0.90941396  0.76602255  0.11398984     0.11500
H4045       H  0.86106125  0.77538777  0.17057201     0.11500
H4046       H  0.85843760  0.73876993  0.17456425     0.11200
H4047       H  0.86921150  0.70450022  0.16510049     0.11800
H4048       H  0.90806755  0.72915577  0.11908848     0.13700
C4049       C  0.79124905  0.89119335  0.24985737    -0.06300
C4050       C  0.79290748  0.90748180  0.26331349    -0.06200
C4051       C  0.77825740  0.91071420  0.27804651    -0.24400
C4052       C  0.76200644  0.89746262  0.27961378     0.17800
C4053       C  0.75905063  0.88252531  0.26461714     0.15000
C4054       C  0.77355840  0.87977607  0.24946005    -0.19400
C4055       C  0.74280572  0.86923917  0.26627908    -0.21200
C4056       C  0.73094822  0.86935318  0.28367100    -0.13800
C4057       C  0.73522772  0.88277121  0.29950356     0.02900
C4058       C  0.74991553  0.89759879  0.29690998    -0.25900
H4059       H  0.80633426  0.91673370  0.26346205     0.07900
H4060       H  0.78051676  0.92248523  0.28916328     0.11500
H4061       H  0.77220961  0.86728990  0.23897174     0.11500
H4062       H  0.74014281  0.85788681  0.25482792     0.11200
H4063       H  0.71938498  0.85799107  0.28530780     0.11800
H4064       H  0.75295374  0.90820893  0.30898335     0.13700
C4065       C  0.70874132  0.88452500  0.13954844    -0.06300
C4066       C  0.71242854  0.86971333  0.15428862    -0.06200
C4067       C  0.73235498  0.86452487  0.15968638    -0.24400
C4068       C  0.74891474  0.87412110  0.15047642     0.17800
C4069       C  0.74540093  0.88853493  0.13518184     0.15000
C4070       C  0.72543269  0.89353226  0.12977902    -0.19400
C4071       C  0.76190533  0.89812668  0.12591776    -0.21200
C4072       C  0.78176033  0.89394914  0.13220375    -0.13800
C4073       C  0.78546453  0.88011652  0.14785647     0.02900
C4074       C  0.76888433  0.86996567  0.15664646    -0.25900
H4075       H  0.69994839  0.86253959  0.16198334     0.07900
H4076       H  0.73481198  0.85332358  0.17139279     0.11500
H4077       H  0.72293440  0.90490115  0.11823528     0.11500
H4078       H  0.75942630  0.90917526  0.11407308     0.11200
H4079       H  0.79415930  0.90187589  0.12515188     0.11800
H4080       H  0.77144847  0.85908787  0.16863751     0.13700
C4081       C  0.78659616  0.61481275  0.87939883    -0.06300
C4082       C  0.78284555  0.63015494  0.86520668    -0.06200
C4083       C  0.76295679  0.63583260  0.86039521    -0.24400
C4084       C  0.74649733  0.62631278  0.86976966     0.17800
C4085       C  0.75007255  0.61101658  0.88419929     0.15000
C4086       C  0.77004882  0.60535134  0.88886261    -0.19400
C4087       C  0.73359800  0.60157311  0.89363848    -0.21200
C4088       C  0.71369747  0.60711964  0.88868693    -0.13800
C4089       C  0.70995880  0.62212618  0.87415783     0.02900
C4090       C  0.72652749  0.63172744  0.86484954    -0.25900
H4091       H  0.79526453  0.63761304  0.85769329     0.07900
H4092       H  0.76044335  0.64761222  0.84928068     0.11500
H4093       H  0.77267787  0.59349101  0.89987790     0.11500
H4094       H  0.73611031  0.58980184  0.90476355     0.11200
H4095       H  0.70125992  0.59947419  0.89598047     0.11800
H4096       H  0.72392325  0.64338633  0.85362046     0.13700
C4097       C  0.86481313  0.61810168  0.79619672    -0.06300
C4098       C  0.85171295  0.63438864  0.79226759    -0.06200
C4099       C  0.84764987  0.64021122  0.77225350    -0.24400
C4100       C  0.85661053  0.62978016  0.75594247     0.17800
C4101       C  0.87028870  0.61383377  0.75976644     0.15000
C4102       C  0.87432625  0.60820247  0.77976498    -0.19400
C4103       C  0.87928765  0.60337560  0.74352441    -0.21200
C4104       C  0.87410936  0.60813255  0.72353938    -0.13800
C4105       C  0.85988349  0.62340407  0.71955485     0.02900
C4106       C  0.85163017  0.63454299  0.73588563    -0.25900
H4107       H  0.84430756  0.64227759  0.80457364     0.07900
H4108       H  0.83717267  0.65257516  0.76951236     0.11500
H4109       H  0.88467033  0.59570444  0.78245013     0.11500
H4110       H  0.88990303  0.59113373  0.74630644     0.11200
H4111       H  0.88060367  0.59938491  0.71129918     0.11800
H4112       H  0.84076124  0.64655617  0.73304688     0.13700
C4113       C  0.95971149  0.61589786  0.88330705    -0.06300
C4114       C  0.96333140  0.63305947  0.89506747    -0.06200
C4115       C  0.98312894  0.63881045  0.89943660    -0.24400
C4116       C  0.99962011  0.62744067  0.89215933     0.17800
C4117       C  0.99626864  0.61031617  0.88004242     0.15000
C4118       C  0.97632323  0.60469984  0.87562325    -0.19400
C4119       C  0.01292419  0.59899326  0.87286543    -0.21200
C4120       C  0.03274849  0.60444187  0.87799217    -0.13800
C4121       C  0.03611410  0.62125235  0.89036243     0.02900
C4122       C  0.01940322  0.63276889  0.89714473    -0.25900
H4123       H  0.95085779  0.64192102  0.90104539     0.07900
H4124       H  0.98554873  0.65203292  0.90872898     0.11500
H4125       H  0.97377095  0.59140712  0.86646975     0.11500
H4126       H  0.01059949  0.58577689  0.86355328     0.11200
H4127       H  0.04533173  0.59528578  0.87274396     0.11800
H4128       H  0.02173467  0.64586398  0.90665465     0.13700
C4129       C  0.88453484  0.61524767  0.96982064    -0.06300
C4130       C  0.89968487  0.62945070  0.97350269    -0.06200
C4131       C  0.90496538  0.63448208  0.99342630    -0.24400
C4132       C  0.89506554  0.62550439  0.00998142     0.17800
C4133       C  0.87968793  0.61137593  0.00645979     0.15000
C4134       C  0.87459796  0.60634197  0.98650934    -0.19400
C4135       C  0.86968854  0.60244883  0.02295074    -0.21200
C4136       C  0.87488150  0.60748207  0.04284951    -0.13800
C4137       C  0.89022944  0.62144320  0.04661263     0.02900
C4138       C  0.90026915  0.63037379  0.02998458    -0.25900
H4139       H  0.90764480  0.63638671  0.96103263     0.07900
H4140       H  0.91684998  0.64535261  0.99589809     0.11500
H4141       H  0.86281350  0.59535816  0.98402273     0.11500
H4142       H  0.85784942  0.59153578  0.02044991     0.11200
H4143       H  0.86702766  0.60033941  0.05526893     0.11800
H4144       H  0.91219589  0.64118236  0.03256270     0.13700
C4145       C  0.86280347  0.21474705  0.12551219    -0.06300
C4146       C  0.88017015  0.21860099  0.11401323    -0.06200
C4147       C  0.88609778  0.23858730  0.11010571    -0.24400
C4148       C  0.87477304  0.25506503  0.11766023     0.17800
C4149       C  0.85763267  0.25137663  0.12969175     0.15000
C4150       C  0.85182781  0.23135192  0.13354274    -0.19400
C4151       C  0.84634827  0.26778300  0.13738848    -0.21200
C4152       C  0.85175189  0.28773616  0.13286567    -0.13800
C4153       C  0.86847838  0.29165531  0.12050063     0.02900
C4154       C  0.88005414  0.27514328  0.11312548    -0.25900
H4155       H  0.88893350  0.20620860  0.10775152     0.07900
H4156       H  0.89938680  0.24116516  0.10093185     0.11500
H4157       H  0.83846733  0.22875387  0.14261890     0.11500
H4158       H  0.83315444  0.26517035  0.14669211     0.11200
H4159       H  0.84258175  0.30007226  0.13865076     0.11800
H4160       H  0.89308315  0.27788465  0.10362152     0.13700
C4161       C  0.78646226  0.37111511  0.11972040    -0.06300
C4162       C  0.78308601  0.35692239  0.13507835    -0.06200
C4163       C  0.76333628  0.35233626  0.14117745    -0.24400
C4164       C  0.74659646  0.36197562  0.13212096     0.17800
C4165       C  0.74978844  0.37659432  0.11697153     0.15000
C4166       C  0.76964297  0.38101111  0.11084377    -0.19400
C4167       C  0.73304892  0.38636893  0.10805427    -0.21200
C4168       C  0.71328427  0.38142252  0.11382355    -0.13800
C4169       C  0.70988387  0.36657366  0.12856096     0.02900
C4170       C  0.72672739  0.35706475  0.13778204    -0.25900
H4171       H  0.79569706  0.34911904  0.14213257     0.07900
H4172       H  0.76114372  0.34111132  0.15287550     0.11500
H4173       H  0.77196478  0.39211710  0.09905379     0.11500
H4174       H  0.73523875  0.39769876  0.09645782     0.11200
H4175       H  0.70066489  0.38896730  0.10651572     0.11800
H4176       H  0.72440816  0.34563053  0.14925847     0.13700
C4177       C  0.87642642  0.46546100  0.12197932    -0.06300
C4178       C  0.88749853  0.46881027  0.13971500    -0.06200
C4179       C  0.89204138  0.48854614  0.14584419    -0.24400
C4180       C  0.88562965  0.50528919  0.13430948     0.17800
C4181       C  0.87414432  0.50214968  0.11668274     0.15000
C4182       C  0.86963451  0.48232200  0.11066016    -0.19400
C4183       C  0.86763842  0.51889135  0.10519715    -0.21200
C4184       C  0.87289665  0.53858022  0.11083598    -0.13800
C4185       C  0.88486226  0.54185633  0.12796254     0.02900
C4186       C  0.89089184  0.52507930  0.13982293    -0.25900
H4187       H  0.89279548  0.45618132  0.14874025     0.07900
H4188       H  0.90078629  0.49070546  0.15948258     0.11500
H4189       H  0.86101929  0.48005216  0.09694763     0.11500
H4190       H  0.85877798  0.51672723  0.09163060     0.11200
H4191       H  0.86819696  0.55117004  0.10143016     0.11800
H4192       H  0.90005532  0.52737871  0.15316929     0.13700
C4193       C  0.88194371  0.46317730  0.02124975    -0.06300
C4194       C  0.87126595  0.48079517  0.02673791    -0.06200
C4195       C  0.87180764  0.49795291  0.01437883    -0.24400
C4196       C  0.88288581  0.49758597  0.99631607     0.17800
C4197       C  0.89506711  0.48049146  0.99177212     0.15000
C4198       C  0.89470300  0.46355117  0.00437265    -0.19400
C4199       C  0.90625865  0.47993820  0.97389421    -0.21200
C4200       C  0.90391479  0.49524906  0.95970098    -0.13800
C4201       C  0.89032568  0.51134845  0.96311530     0.02900
C4202       C  0.88076583  0.51315339  0.98197460    -0.25900
H4203       H  0.86164388  0.48095409  0.03997159     0.07900
H4204       H  0.86267699  0.51103252  0.01835122     0.11500
H4205       H  0.90327298  0.45014150  0.00020608     0.11500
H4206       H  0.91587936  0.46708158  0.97033051     0.11200
H4207       H  0.91179346  0.49375770  0.94542894     0.11800
H4208       H  0.87040915  0.52562465  0.98478199     0.13700
C4209       C  0.95919689  0.38993164  0.12590075    -0.06300
C4210       C  0.96252978  0.40858665  0.13530839    -0.06200
C4211       C  0.98235758  0.41498812  0.13934750    -0.24400
C4212       C  0.99914162  0.40279216  0.13409871     0.17800
C4213       C  0.99584870  0.38380993  0.12510934     0.15000
C4214       C  0.97602074  0.37753573  0.12117415    -0.19400
C4215       C  0.01244976  0.37154250  0.11976508    -0.21200
C4216       C  0.03223837  0.37808986  0.12305254    -0.13800
C4217       C  0.03586131  0.39697820  0.13185283     0.02900
C4218       C  0.01913666  0.40925093  0.13744898    -0.25900
H4219       H  0.94990808  0.41851000  0.13881596     0.07900
H4220       H  0.98458342  0.42963729  0.14622622     0.11500
H4221       H  0.97370422  0.36306824  0.11392083     0.11500
H4222       H  0.01012653  0.35690243  0.11289374     0.11200
H4223       H  0.04473206  0.36831405  0.11876319     0.11800
H4224       H  0.02165513  0.42388408  0.14427025     0.13700
C4225       C  0.11705067  0.36478834  0.72104487    -0.06300
C4226       C  0.10532160  0.38218390  0.72458794    -0.06200
C4227       C  0.10092190  0.38831825  0.74437426    -0.24400
C4228       C  0.10817609  0.37715363  0.76098739     0.17800
C4229       C  0.12009518  0.35971027  0.75768440     0.15000
C4230       C  0.12440761  0.35362765  0.73777367    -0.19400
C4231       C  0.12739281  0.34861626  0.77436219    -0.21200
C4232       C  0.12267609  0.35461857  0.79416043    -0.13800
C4233       C  0.11047745  0.37171809  0.79758582     0.02900
C4234       C  0.10347828  0.38301225  0.78083752    -0.25900
H4235       H  0.09952649  0.39103452  0.71206296     0.07900
H4236       H  0.09177168  0.40176993  0.74668795     0.11500
H4237       H  0.13348403  0.34014151  0.73534217     0.11500
H4238       H  0.13656609  0.33517516  0.77208436     0.11200
H4239       H  0.12810387  0.34561059  0.80673457     0.11800
H4240       H  0.09410757  0.39631030  0.78322084     0.13700
C4241       C  0.10647919  0.29251814  0.87429883    -0.06300
C4242       C  0.12020681  0.28893833  0.85853870    -0.06200
C4243       C  0.12472150  0.26910072  0.85245155    -0.24400
C4244       C  0.11570628  0.25251895  0.86215198     0.17800
C4245       C  0.10199467  0.25592213  0.87810346     0.15000
C4246       C  0.09742882  0.27583284  0.88398740    -0.19400
C4247       C  0.09310482  0.23935176  0.88792605    -0.21200
C4248       C  0.09788816  0.21951469  0.88208221    -0.13800
C4249       C  0.11150503  0.21592039  0.86622180     0.02900
C4250       C  0.12025562  0.23259918  0.85625264    -0.25900
H4251       H  0.12721443  0.30145939  0.85074932     0.07900
H4252       H  0.13526872  0.26671915  0.84014888     0.11500
H4253       H  0.08678859  0.27830335  0.89619964     0.11500
H4254       H  0.08252751  0.24173695  0.90019981     0.11200
H4255       H  0.09093793  0.20701024  0.88994420     0.11800
H4256       H  0.13081729  0.23012143  0.84397406     0.13700
C4257       C  0.11092872  0.46637178  0.88975142    -0.06300
C4258       C  0.12660190  0.47000409  0.90349562    -0.06200
C4259       C  0.13235950  0.48989505  0.90796712    -0.24400
C4260       C  0.12255874  0.50648894  0.89873848     0.17800
C4261       C  0.10711608  0.50301120  0.88455977     0.15000
C4262       C  0.10143962  0.48307705  0.88019250    -0.19400
C4263       C  0.09737522  0.51954119  0.87520388    -0.21200
C4264       C  0.10258133  0.53941961  0.88018275    -0.13800
C4265       C  0.11754117  0.54312729  0.89466833     0.02900
C4266       C  0.12765582  0.52648794  0.90369242    -0.25900
H4267       H  0.13417024  0.45751397  0.91100563     0.07900
H4268       H  0.14432125  0.49231498  0.91883525     0.11500
H4269       H  0.08937645  0.48063134  0.86943334     0.11500
H4270       H  0.08551015  0.51709171  0.86423670     0.11200
H4271       H  0.09456028  0.55187097  0.87308639     0.11800
H4272       H  0.13933321  0.52907330  0.91483786     0.13700
C4273       C  0.95928428  0.51883144  0.88589484    -0.06300
C4274       C  0.97550088  0.52316958  0.87292622    -0.06200
C4275       C  0.99306521  0.51132771  0.87342659    -0.24400
C4276       C  0.99450425  0.49500380  0.88685082     0.17800
C4277       C  0.97912614  0.49208790  0.90143061     0.15000
C4278       C  0.96170440  0.50419474  0.90099935    -0.19400
C4279       C  0.98045497  0.47583716  0.91487922    -0.21200
C4280       C  0.99536862  0.46114030  0.91217767    -0.13800
C4281       C  0.00926555  0.46268341  0.89620789     0.02900
C4282       C  0.00983189  0.48039116  0.88459384    -0.25900
H4283       H  0.97406026  0.53474849  0.86143252     0.07900
H4284       H  0.00484207  0.51403785  0.86239512     0.11500
H4285       H  0.94938484  0.50112474  0.91134206     0.11500
H4286       H  0.96904053  0.47361590  0.92640017     0.11200
H4287       H  0.99505513  0.44776284  0.92161571     0.11800
H4288       H  0.02065713  0.48170802  0.87237428     0.13700
C4289       C  0.11378344  0.39230951  0.04777899    -0.06300
C4290       C  0.09780209  0.37898589  0.04426987    -0.06200
C4291       C  0.09252000  0.37367197  0.02443437    -0.24400
C4292       C  0.10320980  0.38152139  0.00780833     0.17800
C4293       C  0.11963599  0.39447768  0.01120665     0.15000
C4294       C  0.12479419  0.39972970  0.03108033    -0.19400
C4295       C  0.13042226  0.40226504  0.99465432    -0.21200
C4296       C  0.12476385  0.39755894  0.97481330    -0.13800
C4297       C  0.10822183  0.38498481  0.97115892     0.02900
C4298       C  0.09762248  0.37687764  0.98785064    -0.25900
H4299       H  0.08910290  0.37310609  0.05678547     0.07900
H4300       H  0.07988880  0.36364328  0.02207972     0.11500
H4301       H  0.13730657  0.40990578  0.03349843     0.11500
H4302       H  0.14313025  0.41219082  0.99705764     0.11200
H4303       H  0.13317702  0.40393122  0.96234139     0.11800
H4304       H  0.08483909  0.36706969  0.98535400     0.13700
C4305       C  0.96214406  0.38681700  0.02422315    -0.06300
C4306       C  0.97872567  0.37394685  0.02795503    -0.06200
C4307       C  0.99510800  0.37353616  0.01465273    -0.24400
C4308       C  0.99495592  0.38589383  0.99745345     0.17800
C4309       C  0.97908733  0.40012323  0.99469109     0.15000
C4310       C  0.96293902  0.40066506  0.00825374    -0.19400
C4311       C  0.97871610  0.41239477  0.97749756    -0.21200
C4312       C  0.99274684  0.40917424  0.96218057    -0.13800
C4313       C  0.00743250  0.39381477  0.96398114     0.02900
C4314       C  0.00934059  0.38308709  0.98215317    -0.25900
H4315       H  0.97842791  0.36325626  0.04034094     0.07900
H4316       H  0.00723891  0.36269514  0.01713231     0.11500
H4317       H  0.95025790  0.41080420  0.00547902     0.11500
H4318       H  0.96681208  0.42354342  0.97529546     0.11200
H4319       H  0.99131544  0.41787515  0.94838587     0.11800
H4320       H  0.02075309  0.37131178  0.98363246     0.13700
C4321       C  0.63105845  0.39088711  0.72051430    -0.06300
C4322       C  0.64834264  0.37902573  0.72414531    -0.06200
C4323       C  0.65444688  0.37486430  0.74403757    -0.24400
C4324       C  0.64328476  0.38242935  0.76054898     0.17800
C4325       C  0.62580929  0.39422059  0.75703786     0.15000
C4326       C  0.61984634  0.39832267  0.73713060    -0.19400
C4327       C  0.61462025  0.40180215  0.77349093    -0.21200
C4328       C  0.62060241  0.39758081  0.79336446    -0.13800
C4329       C  0.63786555  0.38573193  0.79708058     0.02900
C4330       C  0.64922090  0.37834304  0.78050480    -0.25900
H4331       H  0.65732908  0.37336597  0.71167035     0.07900
H4332       H  0.66795443  0.36582681  0.74651808     0.11500
H4333       H  0.60643886  0.40751787  0.73460459     0.11500
H4334       H  0.60117110  0.41092440  0.77097741     0.11200
H4335       H  0.61164855  0.40340512  0.80578799     0.11800
H4336       H  0.66266720  0.36922999  0.78308015     0.13700
C4337       C  0.74588189  0.45214088  0.87274159    -0.06300
C4338       C  0.76200007  0.44944378  0.85916517    -0.06200
C4339       C  0.77686800  0.46407420  0.85734939    -0.24400
C4340       C  0.77594810  0.48148228  0.86928610     0.17800
C4341       C  0.75913741  0.48493845  0.88207153     0.15000
C4342       C  0.74398029  0.47033676  0.88346356    -0.19400
C4343       C  0.75846584  0.50231493  0.89416460    -0.21200
C4344       C  0.77490554  0.51542917  0.89456607    -0.13800
C4345       C  0.79209993  0.51136775  0.88275865     0.02900
C4346       C  0.79215815  0.49483858  0.86954199    -0.25900
H4347       H  0.76359473  0.43560246  0.85058715     0.07900
H4348       H  0.78958246  0.46130704  0.84735894     0.11500
H4349       H  0.73154869  0.47250204  0.89394963     0.11500
H4350       H  0.74564818  0.50527480  0.90396487     0.11200
H4351       H  0.77454210  0.52819988  0.90476467     0.11800
H4352       H  0.80530693  0.49172853  0.86021056     0.13700
C4353       C  0.63549361  0.46481224  0.88219845    -0.06300
C4354       C  0.62014098  0.46903908  0.86820670    -0.06200
C4355       C  0.61387654  0.48900344  0.86473738    -0.24400
C4356       C  0.62289667  0.50504379  0.87521077     0.17800
C4357       C  0.63759915  0.50095845  0.89007485     0.15000
C4358       C  0.64372342  0.48084642  0.89354835    -0.19400
C4359       C  0.64652756  0.51713662  0.90051709    -0.21200
C4360       C  0.64189853  0.53724852  0.89529445    -0.13800
C4361       C  0.62816648  0.54139894  0.87968646     0.02900
C4362       C  0.61813338  0.52513006  0.87034078    -0.25900
H4363       H  0.61351402  0.45700113  0.85942189     0.07900
H4364       H  0.60246050  0.49195812  0.85336589     0.11500
H4365       H  0.65539688  0.47776365  0.90463273     0.11500
H4366       H  0.65767042  0.51423266  0.91216815     0.11200
H4367       H  0.64963720  0.54945119  0.90283638     0.11800
H4368       H  0.60717554  0.52802523  0.85850407     0.13700
C4369       C  0.63163530  0.36862223  0.04684867    -0.06300
C4370       C  0.64427515  0.38508878  0.04306700    -0.06200
C4371       C  0.64832331  0.39106583  0.02311882    -0.24400
C4372       C  0.63974556  0.38066986  0.00671582     0.17800
C4373       C  0.62664016  0.36442311  0.01041495     0.15000
C4374       C  0.62272142  0.35854968  0.03034132    -0.19400
C4375       C  0.61791626  0.35404951  0.99412480    -0.21200
C4376       C  0.62260368  0.35935769  0.97421501    -0.13800
C4377       C  0.63615742  0.37502831  0.97032208     0.02900
C4378       C  0.64438544  0.38588640  0.98668829    -0.25900
H4379       H  0.65123691  0.39309950  0.05545924     0.07900
H4380       H  0.65836149  0.40364249  0.02050530     0.11500
H4381       H  0.61278753  0.34587517  0.03292301     0.11500
H4382       H  0.60777136  0.34156696  0.99679298     0.11200
H4383       H  0.61618346  0.35077966  0.96190910     0.11800
H4384       H  0.65478240  0.39813194  0.98386478     0.13700
C4385       C  0.73915627  0.36870020  0.96694612    -0.06300
C4386       C  0.73360764  0.37916205  0.98458874    -0.06200
C4387       C  0.74651237  0.37933489  0.00131038    -0.24400
C4388       C  0.76522926  0.36925719  0.00048434     0.17800
C4389       C  0.77007165  0.35735253  0.98338342     0.15000
C4390       C  0.75687780  0.35691607  0.96688780    -0.19400
C4391       C  0.78872210  0.34729886  0.98237551    -0.21200
C4392       C  0.80320636  0.35051044  0.99723361    -0.13800
C4393       C  0.79923301  0.36370422  0.01341548     0.02900
C4394       C  0.77979727  0.37211672  0.01562982    -0.25900
H4395       H  0.71981482  0.38807873  0.98508412     0.07900
H4396       H  0.74237339  0.38828253  0.01439996     0.11500
H4397       H  0.76116041  0.34856158  0.95344307     0.11500
H4398       H  0.79256171  0.33789948  0.96951072     0.11200
H4399       H  0.81795366  0.34350624  0.99543509     0.11800
H4400       H  0.77655379  0.38214573  0.02818288     0.13700
C4401       C  0.63386108  0.29192696  0.89354239    -0.06300
C4402       C  0.62109590  0.28834027  0.91003473    -0.06200
C4403       C  0.61658332  0.26842457  0.91576667    -0.24400
C4404       C  0.62472280  0.25186063  0.90502827     0.17800
C4405       C  0.63740576  0.25535691  0.88833261     0.15000
C4406       C  0.64182513  0.27524531  0.88273915    -0.19400
C4407       C  0.64558232  0.23891355  0.87753025    -0.21200
C4408       C  0.64115750  0.21904034  0.88317487    -0.13800
C4409       C  0.62855072  0.21530025  0.89974229     0.02900
C4410       C  0.62043245  0.23187167  0.91065087    -0.25900
H4411       H  0.61497370  0.30084901  0.91868854     0.07900
H4412       H  0.60683934  0.26596302  0.92867366     0.11500
H4413       H  0.65170696  0.27768089  0.86992247     0.11500
H4414       H  0.65540198  0.24143424  0.86469027     0.11200
H4415       H  0.64760398  0.20662493  0.87461933     0.11800
H4416       H  0.61068690  0.22926413  0.92353290     0.13700
C4417       C  0.95789119  0.14053760  0.87351700    -0.06300
C4418       C  0.96148413  0.12702361  0.85757310    -0.06200
C4419       C  0.98140570  0.12216552  0.85173674    -0.24400
C4420       C  0.99805304  0.13069209  0.86180286     0.17800
C4421       C  0.99455752  0.14398334  0.87806530     0.15000
C4422       C  0.97463621  0.14874193  0.88378628    -0.19400
C4423       C  0.01104030  0.15252667  0.88824536    -0.21200
C4424       C  0.03090583  0.14802751  0.88234539    -0.13800
C4425       C  0.03471812  0.13493285  0.86612921     0.02900
C4426       C  0.01810886  0.12628757  0.85589876    -0.25900
H4427       H  0.94894635  0.12060372  0.84935077     0.07900
H4428       H  0.98379463  0.11190881  0.83921428     0.11500
H4429       H  0.97220720  0.15914258  0.89619800     0.11500
H4430       H  0.00856033  0.16276738  0.90077101     0.11200
H4431       H  0.04330317  0.15485559  0.89045235     0.11800
H4432       H  0.02075432  0.11612196  0.84334573     0.13700
C4433       C  0.86352403  0.14666122  0.96848323    -0.06300
C4434       C  0.85204587  0.12933033  0.97206553    -0.06200
C4435       C  0.84869250  0.12261970  0.99183651    -0.24400
C4436       C  0.85683249  0.13309609  0.00836038     0.17800
C4437       C  0.86807643  0.15076699  0.00505460     0.15000
C4438       C  0.87122903  0.15750933  0.98515667    -0.19400
C4439       C  0.87616715  0.16118941  0.02169939    -0.21200
C4440       C  0.87316831  0.15408004  0.04147717    -0.13800
C4441       C  0.86196699  0.13650674  0.04488134     0.02900
C4442       C  0.85391381  0.12612011  0.02813404    -0.25900
H4443       H  0.84591590  0.12079824  0.95957779     0.07900
H4444       H  0.83992473  0.10907614  0.99420008     0.11500
H4445       H  0.88002465  0.17101539  0.98267784     0.11500
H4446       H  0.88477748  0.17484327  0.01941745     0.11200
H4447       H  0.87927248  0.16247673  0.05406429     0.11800
H4448       H  0.84518193  0.11253707  0.03044858     0.13700
C4449       C  0.86627302  0.25051545  0.95922583    -0.06300
C4450       C  0.85170873  0.26598607  0.95744027    -0.06200
C4451       C  0.84966995  0.28054562  0.97244134    -0.24400
C4452       C  0.86240378  0.27999320  0.98927982     0.17800
C4453       C  0.87614919  0.26369066  0.99191321     0.15000
C4454       C  0.87775955  0.24879119  0.97695019    -0.19400
C4455       C  0.88898645  0.26337807  0.00875760    -0.21200
C4456       C  0.88922241  0.27977737  0.02202464    -0.13800
C4457       C  0.87657238  0.29657783  0.01859182     0.02900
C4458       C  0.86256993  0.29618959  0.00275322    -0.25900
H4459       H  0.84251001  0.26736413  0.94397530     0.07900
H4460       H  0.83891428  0.29282566  0.97033669     0.11500
H4461       H  0.88900570  0.23685247  0.97837660     0.11500
H4462       H  0.89951493  0.25095418  0.01110661     0.11200
H4463       H  0.90004727  0.27980045  0.03428213     0.11800
H4464       H  0.85258395  0.30904149  0.00021714     0.13700
C4465       C  0.95936218  0.24131271  0.87535794    -0.06300
C4466       C  0.97474473  0.23755936  0.88955280    -0.06200
C4467       C  0.99135173  0.25035491  0.89083475    -0.24400
C4468       C  0.99278152  0.26705182  0.87791892     0.17800
C4469       C  0.97826824  0.26980126  0.86241826     0.15000
C4470       C  0.96172949  0.25680866  0.86114496    -0.19400
C4471       C  0.97963046  0.28645051  0.84947843    -0.21200
C4472       C  0.99388833  0.30133880  0.85318071    -0.13800
C4473       C  0.00714769  0.29964895  0.86967872     0.02900
C4474       C  0.00741642  0.28189776  0.88125354    -0.25900
H4475       H  0.97331065  0.22552866  0.90054261     0.07900
H4476       H  0.00242875  0.24785878  0.90265076     0.11500
H4477       H  0.95003349  0.25959334  0.84998377     0.11500
H4478       H  0.96886710  0.28861646  0.83731380     0.11200
H4479       H  0.99375737  0.31477870  0.84382635     0.11800
H4480       H  0.01769137  0.28048934  0.89393970     0.13700
C4481       C  0.79370703  0.24514286  0.89562689    -0.06300
C4482       C  0.79538795  0.25887311  0.91165445    -0.06200
C4483       C  0.77928815  0.27168145  0.91646925    -0.24400
C4484       C  0.76161592  0.27125736  0.90487477     0.17800
C4485       C  0.75915568  0.25617866  0.88996355     0.15000
C4486       C  0.77511611  0.24281804  0.88579354    -0.19400
C4487       C  0.74164271  0.25608607  0.87807652    -0.21200
C4488       C  0.72792502  0.27217385  0.87925327    -0.13800
C4489       C  0.73154949  0.28829788  0.89249200     0.02900
C4490       C  0.74746853  0.28696528  0.90637022    -0.25900
H4491       H  0.80952382  0.26046440  0.91971679     0.07900
H4492       H  0.78126038  0.28294496  0.92816174     0.11500
H4493       H  0.77374486  0.23208608  0.87351295     0.11500
H4494       H  0.73940439  0.24451076  0.86674949     0.11200
H4495       H  0.71552709  0.27283705  0.86860063     0.11800
H4496       H  0.75007315  0.29926412  0.91684791     0.13700
C4497       C  0.78449338  0.14475590  0.88799839    -0.06300
C4498       C  0.78144245  0.12783393  0.90036708    -0.06200
C4499       C  0.76183444  0.12150764  0.90505213    -0.24400
C4500       C  0.74489872  0.13198987  0.89743772     0.17800
C4501       C  0.74769345  0.14877530  0.88464015     0.15000
C4502       C  0.76744466  0.15504611  0.88001377    -0.19400
C4503       C  0.73067422  0.15913751  0.87694372    -0.21200
C4504       C  0.71105725  0.15318436  0.88227591    -0.13800
C4505       C  0.70815806  0.13685359  0.89546136     0.02900
C4506       C  0.72522952  0.12616883  0.90272905    -0.25900
H4507       H  0.79422257  0.11960286  0.90659456     0.07900
H4508       H  0.75991094  0.10852603  0.91482133     0.11500
H4509       H  0.76950351  0.16808104  0.87034027     0.11500
H4510       H  0.73254334  0.17202478  0.86704518     0.11200
H4511       H  0.69821100  0.16166201  0.87653480     0.11800
H4512       H  0.72324803  0.11342631  0.91280882     0.13700
C4513       C  0.88168915  0.13405063  0.71865181    -0.06300
C4514       C  0.86829695  0.15019948  0.72217769    -0.06200
C4515       C  0.86300429  0.15553694  0.74198598    -0.24400
C4516       C  0.87102691  0.14477956  0.75854056     0.17800
C4517       C  0.88407933  0.12819741  0.75515821     0.15000
C4518       C  0.88925465  0.12293051  0.73528638    -0.19400
C4519       C  0.89208784  0.11744044  0.77172142    -0.21200
C4520       C  0.88762231  0.12341331  0.79155351    -0.13800
C4521       C  0.87504954  0.14018649  0.79509805     0.02900
C4522       C  0.86655383  0.15058564  0.77842172    -0.25900
H4523       H  0.86231831  0.15897066  0.70968477     0.07900
H4524       H  0.85291692  0.16829259  0.74437666     0.11500
H4525       H  0.89952521  0.11032196  0.73282407     0.11500
H4526       H  0.90207875  0.10460772  0.76932798     0.11200
H4527       H  0.89425939  0.11515905  0.80406828     0.11800
H4528       H  0.85670069  0.16352050  0.78084669     0.13700
C4529       C  0.86215833  0.46581966  0.64283005    -0.06300
C4530       C  0.84711043  0.46943625  0.62834731    -0.06200
C4531       C  0.84183842  0.48936871  0.62306080    -0.24400
C4532       C  0.85161041  0.50586592  0.63216387     0.17800
C4533       C  0.86685492  0.50228459  0.64658610     0.15000
C4534       C  0.87198178  0.48242337  0.65175215    -0.19400
C4535       C  0.87670001  0.51861329  0.65576013    -0.21200
C4536       C  0.87143047  0.53849683  0.65074686    -0.13800
C4537       C  0.85621418  0.54233503  0.63653421     0.02900
C4538       C  0.84638421  0.52587747  0.62723750    -0.25900
H4539       H  0.83930508  0.45695236  0.62136204     0.07900
H4540       H  0.83006513  0.49189311  0.61195819     0.11500
H4541       H  0.88370711  0.47997603  0.66293909     0.11500
H4542       H  0.88842410  0.51599368  0.66690766     0.11200
H4543       H  0.87908509  0.55084870  0.65813355     0.11800
H4544       H  0.83455593  0.52859754  0.61622724     0.13700
C4545       C  0.79560608  0.38914691  0.75158015    -0.06300
C4546       C  0.79671417  0.40422292  0.76644003    -0.06200
C4547       C  0.78214624  0.40551160  0.78156105    -0.24400
C4548       C  0.76635868  0.39161767  0.78212162     0.17800
C4549       C  0.76408418  0.37754618  0.76622204     0.15000
C4550       C  0.77863648  0.37659008  0.75081228    -0.19400
C4551       C  0.74813602  0.36374729  0.76685096    -0.21200
C4552       C  0.73553036  0.36291847  0.78377454    -0.13800
C4553       C  0.73878856  0.37583221  0.80024910     0.02900
C4554       C  0.75366590  0.39069234  0.79897997    -0.25900
H4555       H  0.80949557  0.41431487  0.76704263     0.07900
H4556       H  0.78388733  0.41661378  0.79344590     0.11500
H4557       H  0.77762571  0.36501913  0.73928573     0.11500
H4558       H  0.74600610  0.35299153  0.75472383     0.11200
H4559       H  0.72396342  0.35146935  0.78443901     0.11800
H4560       H  0.75600655  0.40090378  0.81155596     0.13700
C4561       C  0.78637088  0.38399407  0.64752346    -0.06300
C4562       C  0.78266800  0.39778316  0.63182609    -0.06200
C4563       C  0.76281970  0.40297750  0.62645161    -0.24400
C4564       C  0.74632677  0.39437668  0.63661379     0.17800
C4565       C  0.74980833  0.38018072  0.65214633     0.15000
C4566       C  0.76978982  0.37511370  0.65751628    -0.19400
C4567       C  0.73323265  0.37149245  0.66216116    -0.21200
C4568       C  0.71335628  0.37704052  0.65700167    -0.13800
C4569       C  0.70975834  0.39145382  0.64184778     0.02900
C4570       C  0.72641600  0.39992307  0.63163850    -0.25900
H4571       H  0.79510972  0.40480634  0.62393656     0.07900
H4572       H  0.76036594  0.41386909  0.61445126     0.11500
H4573       H  0.77240266  0.36436431  0.66961689     0.11500
H4574       H  0.73565063  0.36054539  0.67411524     0.11200
H4575       H  0.70084835  0.37040049  0.66512799     0.11800
H4576       H  0.72392254  0.41102377  0.61982825     0.13700
C4577       C  0.86743503  0.46629348  0.74393668    -0.06300
C4578       C  0.87935674  0.48324783  0.73976994    -0.06200
C4579       C  0.87862188  0.50007998  0.75244009    -0.24400
C4580       C  0.86600788  0.50007866  0.76944396     0.17800
C4581       C  0.85269921  0.48376024  0.77266517     0.15000
C4582       C  0.85336867  0.46705637  0.75975670    -0.19400
C4583       C  0.84017990  0.48362694  0.78970511    -0.21200
C4584       C  0.84246550  0.49831418  0.80455411    -0.13800
C4585       C  0.85703272  0.51347407  0.80235711     0.02900
C4586       C  0.86776861  0.51513634  0.78417953    -0.25900
H4587       H  0.89017584  0.48299620  0.72749120     0.07900
H4588       H  0.88877467  0.51253290  0.74962936     0.11500
H4589       H  0.84392940  0.45409371  0.76284448     0.11500
H4590       H  0.82966205  0.47141717  0.79222830     0.11200
H4591       H  0.83376275  0.49705094  0.81835304     0.11800
H4592       H  0.87894488  0.52689025  0.78237615     0.13700
C4593       C  0.95912718  0.37511237  0.64187896    -0.06300
C4594       C  0.96327649  0.35752143  0.63087115    -0.06200
C4595       C  0.98332261  0.35157417  0.62738754    -0.24400
C4596       C  0.99937046  0.36317723  0.63489940     0.17800
C4597       C  0.99534145  0.38124594  0.64539630     0.15000
C4598       C  0.97526174  0.38716338  0.64864457    -0.19400
C4599       C  0.01144164  0.39278920  0.65292675    -0.21200
C4600       C  0.03149428  0.38632399  0.65023305    -0.13800
C4601       C  0.03560797  0.36828374  0.63996144     0.02900
C4602       C  0.01938239  0.35684413  0.63231184    -0.25900
H4603       H  0.95110169  0.34800755  0.62569106     0.07900
H4604       H  0.98628154  0.33766948  0.61925232     0.11500
H4605       H  0.97221121  0.40089113  0.65706792     0.11500
H4606       H  0.00850331  0.40672700  0.66101743     0.11200
H4607       H  0.04370579  0.39537159  0.65611829     0.11800
H4608       H  0.02223308  0.34283068  0.62431870     0.13700
C4609       C  0.00894489  0.37001606  0.80078987    -0.06300
C4610       C  0.99507318  0.35410620  0.80187031    -0.06200
C4611       C  0.98060873  0.35165133  0.78686992    -0.24400
C4612       C  0.97969217  0.36525506  0.77072248     0.17800
C4613       C  0.99476027  0.38015043  0.76851321     0.15000
C4614       C  0.00961701  0.38220870  0.78346894    -0.19400
C4615       C  0.99363927  0.39378090  0.75231364    -0.21200
C4616       C  0.97683232  0.39377384  0.73952955    -0.13800
C4617       C  0.96104966  0.38010801  0.74281220     0.02900
C4618       C  0.96305704  0.36522931  0.75774464    -0.25900
H4619       H  0.99458588  0.34432934  0.81499157     0.07900
H4620       H  0.96934977  0.33998160  0.78860680     0.11500
H4621       H  0.02034686  0.39446481  0.78256967     0.11500
H4622       H  0.00513184  0.40516184  0.75024352     0.11200
H4623       H  0.97558807  0.40526599  0.72792636     0.11800
H4624       H  0.95101524  0.35446569  0.76012654     0.13700
C4625       C  0.89084494  0.30152375  0.74946407    -0.06300
C4626       C  0.90495750  0.30363364  0.76514023    -0.06200
C4627       C  0.90745478  0.28841751  0.77946374    -0.24400
C4628       C  0.89564141  0.27102762  0.77845613     0.17800
C4629       C  0.88270585  0.26795251  0.76176256     0.15000
C4630       C  0.88069188  0.28313232  0.74707549    -0.19400
C4631       C  0.87072649  0.25057955  0.76104085    -0.21200
C4632       C  0.87001012  0.23753379  0.77765685    -0.13800
C4633       C  0.88150127  0.24161438  0.79498183     0.02900
C4634       C  0.89524023  0.25761236  0.79473377    -0.25900
H4635       H  0.91322172  0.31755313  0.76702093     0.07900
H4636       H  0.91761793  0.29085715  0.79205163     0.11500
H4637       H  0.86990264  0.28134870  0.73489338     0.11500
H4638       H  0.86093248  0.24781123  0.74824126     0.11200
H4639       H  0.85954591  0.22505330  0.77744713     0.11800
H4640       H  0.90443218  0.26064530  0.80793548     0.13700
C4641       C  0.88645290  0.21622571  0.63859852    -0.06300
C4642       C  0.86948261  0.22023195  0.65070217    -0.06200
C4643       C  0.86380292  0.24021611  0.65515762    -0.24400
C4644       C  0.87497826  0.25654312  0.64754529     0.17800
C4645       C  0.89164279  0.25275696  0.63479076     0.15000
C4646       C  0.89723652  0.23268237  0.63040288    -0.19400
C4647       C  0.90268115  0.26911075  0.62700125    -0.21200
C4648       C  0.89758078  0.28905636  0.63226683    -0.13800
C4649       C  0.88146322  0.29295196  0.64551175     0.02900
C4650       C  0.87005235  0.27655645  0.65283803    -0.25900
H4651       H  0.86085838  0.20792637  0.65705493     0.07900
H4652       H  0.85085978  0.24290033  0.66484455     0.11500
H4653       H  0.91026242  0.22990822  0.62084154     0.11500
H4654       H  0.91548025  0.26645212  0.61712047     0.11200
H4655       H  0.90660088  0.30135814  0.62649639     0.11800
H4656       H  0.85744884  0.27934203  0.66295416     0.13700
C4657       C  0.61129208  0.79173016  0.87964455    -0.06300
C4658       C  0.62673076  0.78753927  0.86572918    -0.06200
C4659       C  0.63233246  0.76744782  0.86161378    -0.24400
C4660       C  0.62254098  0.75130614  0.87134691     0.17800
C4661       C  0.60742631  0.75537733  0.88577643     0.15000
C4662       C  0.60199547  0.77547968  0.88985277    -0.19400
C4663       C  0.59762402  0.73926954  0.89552853    -0.21200
C4664       C  0.60228701  0.71918205  0.89050558    -0.13800
C4665       C  0.61680793  0.71495037  0.87567481     0.02900
C4666       C  0.62719631  0.73116760  0.86650310    -0.25900
H4667       H  0.63408463  0.79970732  0.85771472     0.07900
H4668       H  0.64403302  0.76451317  0.85052392     0.11500
H4669       H  0.59013460  0.77840736  0.90078596     0.11500
H4670       H  0.58602170  0.74222683  0.90671679     0.11200
H4671       H  0.59414830  0.70703398  0.89774939     0.11800
H4672       H  0.63862849  0.72817827  0.85514486     0.13700
C4673       C  0.61061194  0.87591365  0.79793419    -0.06300
C4674       C  0.62645645  0.86235992  0.79380270    -0.06200
C4675       C  0.63196230  0.85817762  0.77378147    -0.24400
C4676       C  0.62166964  0.86745324  0.75757844     0.17800
C4677       C  0.60590535  0.88131608  0.76146354     0.15000
C4678       C  0.60053359  0.88548709  0.78157927    -0.19400
C4679       C  0.59560777  0.89049334  0.74515485    -0.21200
C4680       C  0.60062393  0.88558501  0.72509982    -0.13800
C4681       C  0.61603361  0.87147853  0.72110548     0.02900
C4682       C  0.62666697  0.86277131  0.73755066    -0.25900
H4683       H  0.63438863  0.85481340  0.80600873     0.07900
H4684       H  0.64412021  0.84747748  0.77095176     0.11500
H4685       H  0.58825892  0.89604557  0.78444314     0.11500
H4686       H  0.58346723  0.90122301  0.74792486     0.11200
H4687       H  0.59223767  0.89246780  0.71281069     0.11800
H4688       H  0.63873504  0.85193100  0.73484904     0.13700
C4689       C  0.60852046  0.96501818  0.89348683    -0.06300
C4690       C  0.62386668  0.96856876  0.90760461    -0.06200
C4691       C  0.62967667  0.98842621  0.91204350    -0.24400
C4692       C  0.62026948  0.00498033  0.90235358     0.17800
C4693       C  0.60507314  0.00153551  0.88791924     0.15000
C4694       C  0.59933030  0.98166754  0.88362538    -0.19400
C4695       C  0.59569474  0.01802743  0.87815136    -0.21200
C4696       C  0.60111212  0.03789093  0.88288125    -0.13800
C4697       C  0.61595649  0.04155690  0.89746740     0.02900
C4698       C  0.62560618  0.02492440  0.90700368    -0.25900
H4699       H  0.63113375  0.95607000  0.91537891     0.07900
H4700       H  0.64140312  0.99085123  0.92316166     0.11500
H4701       H  0.58751999  0.97922824  0.87258527     0.11500
H4702       H  0.58400907  0.01555716  0.86699721     0.11200
H4703       H  0.59346766  0.05035734  0.87540255     0.11800
H4704       H  0.63716902  0.02745459  0.91827420     0.13700
C4705       C  0.60425728  0.88515629  0.97189087    -0.06300
C4706       C  0.61877816  0.90001663  0.97548387    -0.06200
C4707       C  0.62413285  0.90513860  0.99526502    -0.24400
C4708       C  0.61517013  0.89537680  0.01182875     0.17800
C4709       C  0.60060798  0.88033319  0.00850413     0.15000
C4710       C  0.59515806  0.87540286  0.98856441    -0.19400
C4711       C  0.59181519  0.87052042  0.02519309    -0.21200
C4712       C  0.59737694  0.87565312  0.04501039    -0.13800
C4713       C  0.61172448  0.89075788  0.04844739     0.02900
C4714       C  0.62055708  0.90047265  0.03165874    -0.25900
H4715       H  0.62587955  0.90780227  0.96299458     0.07900
H4716       H  0.63532217  0.91675243  0.99761620     0.11500
H4717       H  0.58390405  0.86388478  0.98605259     0.11500
H4718       H  0.58062048  0.85890217  0.02291685     0.11200
H4719       H  0.59034758  0.86797370  0.05759940     0.11800
H4720       H  0.63171963  0.91212734  0.03396680     0.13700
C4721       C  0.36589565  0.79278902  0.12655842    -0.06300
C4722       C  0.35220239  0.78914443  0.14226925    -0.06200
C4723       C  0.34749787  0.76919536  0.14770947    -0.24400
C4724       C  0.35634116  0.75270920  0.13740059     0.17800
C4725       C  0.37059464  0.75629863  0.12205035     0.15000
C4726       C  0.37534502  0.77617620  0.11689993    -0.19400
C4727       C  0.37948285  0.73997605  0.11164197    -0.21200
C4728       C  0.37379843  0.72013105  0.11596236    -0.13800
C4729       C  0.35914093  0.71635026  0.13071782     0.02900
C4730       C  0.35077428  0.73273386  0.14169258    -0.25900
H4731       H  0.34485097  0.80161904  0.14997898     0.07900
H4732       H  0.33660576  0.76665635  0.15964244     0.11500
H4733       H  0.38613888  0.77861791  0.10484809     0.11500
H4734       H  0.39048000  0.74259713  0.09981799     0.11200
H4735       H  0.38035731  0.70782472  0.10732931     0.11800
H4736       H  0.33952366  0.72999670  0.15325439     0.13700
C4737       C  0.20848769  0.86913690  0.12488055    -0.06300
C4738       C  0.21210013  0.87963694  0.10685333    -0.06200
C4739       C  0.23200421  0.88338637  0.10060261    -0.24400
C4740       C  0.24852697  0.87679393  0.11238010     0.17800
C4741       C  0.24497626  0.86654863  0.13069197     0.15000
C4742       C  0.22506792  0.86286594  0.13680029    -0.19400
C4743       C  0.26139189  0.85993572  0.14252312    -0.21200
C4744       C  0.28126833  0.86353552  0.13632637    -0.13800
C4745       C  0.28505352  0.87380607  0.11821685     0.02900
C4746       C  0.26852858  0.88027358  0.10622431    -0.25900
H4747       H  0.19961441  0.88438054  0.09734326     0.07900
H4748       H  0.23448603  0.89124440  0.08647181     0.11500
H4749       H  0.22250060  0.85478407  0.15080366     0.11500
H4750       H  0.25884899  0.85201187  0.15660840     0.11200
H4751       H  0.29366538  0.85842473  0.14576892     0.11800
H4752       H  0.27118698  0.88814710  0.09212909     0.13700
C4753       C  0.53492699  0.89259193  0.12888192    -0.06300
C4754       C  0.53136771  0.87468997  0.11818554    -0.06200
C4755       C  0.51157065  0.86867778  0.11387532    -0.24400
C4756       C  0.49494109  0.88046324  0.12017419     0.17800
C4757       C  0.49824458  0.89842616  0.13106239     0.15000
C4758       C  0.51818048  0.90437583  0.13530897    -0.19400
C4759       C  0.48153985  0.91013106  0.13742221    -0.21200
C4760       C  0.46173438  0.90418699  0.13284889    -0.13800
C4761       C  0.45831430  0.88653131  0.12170476     0.02900
C4762       C  0.47507993  0.87468562  0.11557189    -0.25900
H4763       H  0.54389243  0.86532894  0.11315921     0.07900
H4764       H  0.50926330  0.85480698  0.10554368     0.11500
H4765       H  0.52062536  0.91824847  0.14360630     0.11500
H4766       H  0.48380286  0.92398778  0.14578862     0.11200
H4767       H  0.44915190  0.91362341  0.13758315     0.11800
H4768       H  0.47269718  0.86096054  0.10700875     0.13700
C4769       C  0.50215574  0.88685651  0.96148341    -0.06300
C4770       C  0.48683705  0.90152142  0.95926623    -0.06200
C4771       C  0.47245785  0.90431233  0.97431915    -0.24400
C4772       C  0.47308756  0.89225340  0.99164283     0.17800
C4773       C  0.48944838  0.87867488  0.99478996     0.15000
C4774       C  0.50416722  0.87630787  0.97974603    -0.19400
C4775       C  0.48984840  0.86653295  0.01214431    -0.21200
C4776       C  0.47328979  0.86648691  0.02522119    -0.13800
C4777       C  0.45630456  0.87865960  0.02106773     0.02900
C4778       C  0.45677060  0.89234508  0.00496948    -0.25900
H4779       H  0.48530672  0.91007675  0.94538997     0.07900
H4780       H  0.46015938  0.91496294  0.97183443     0.11500
H4781       H  0.51605270  0.86505718  0.98152644     0.11500
H4782       H  0.50235174  0.85621437  0.01493084     0.11200
H4783       H  0.47322259  0.85598028  0.03777224     0.11800
H4784       H  0.44377865  0.90200382  0.00194514     0.13700
C4785       C  0.37854298  0.96537754  0.11898382    -0.06300
C4786       C  0.38811928  0.96863691  0.13757208    -0.06200
C4787       C  0.39209663  0.98832243  0.14412645    -0.24400
C4788       C  0.38654392  0.00505631  0.13218548     0.17800
C4789       C  0.37665533  0.00197749  0.11359944     0.15000
C4790       C  0.37274786  0.98220420  0.10713605    -0.19400
C4791       C  0.37099061  0.01872786  0.10171816    -0.21200
C4792       C  0.37534243  0.03840127  0.10807760    -0.13800
C4793       C  0.38555890  0.04159309  0.12631575     0.02900
C4794       C  0.39095690  0.02480147  0.13837608    -0.25900
H4795       H  0.39258166  0.95598125  0.14699906     0.07900
H4796       H  0.39961918  0.99045971  0.15848207     0.11500
H4797       H  0.36526954  0.97995450  0.09276809     0.11500
H4798       H  0.36339836  0.01659493  0.08739852     0.11200
H4799       H  0.37124194  0.05105948  0.09848783     0.11800
H4800       H  0.39881882  0.02707873  0.15253584     0.13700
C4801       C  0.20890414  0.12609015  0.87515287    -0.06300
C4802       C  0.21282059  0.11069590  0.88921693    -0.06200
C4803       C  0.23281419  0.10510269  0.89389646    -0.24400
C4804       C  0.24924055  0.11481541  0.88458946     0.17800
C4805       C  0.24552903  0.13084025  0.87103219     0.15000
C4806       C  0.22545837  0.13641367  0.86650129    -0.19400
C4807       C  0.26194823  0.14063256  0.86180454    -0.21200
C4808       C  0.28189545  0.13423848  0.86557011    -0.13800
C4809       C  0.28578112  0.11791453  0.87858139     0.02900
C4810       C  0.26927692  0.10847973  0.88825324    -0.25900
H4811       H  0.20045974  0.10253198  0.89606138     0.07900
H4812       H  0.23543165  0.09283464  0.90444676     0.11500
H4813       H  0.22275965  0.14847060  0.85572409     0.11500
H4814       H  0.25934204  0.15303028  0.85140867     0.11200
H4815       H  0.29423010  0.14178864  0.85800789     0.11800
H4816       H  0.27196860  0.09595089  0.89848396     0.13700
C4817       C  0.36683835  0.11768641  0.79685223    -0.06300
C4818       C  0.35466285  0.13470311  0.79297475    -0.06200
C4819       C  0.35069492  0.14065928  0.77300214    -0.24400
C4820       C  0.35888045  0.12968108  0.75667687     0.17800
C4821       C  0.37122094  0.11263834  0.76046756     0.15000
C4822       C  0.37501127  0.10675506  0.78042354    -0.19400
C4823       C  0.37952488  0.10166788  0.74424081    -0.21200
C4824       C  0.37537075  0.10733483  0.72429672    -0.13800
C4825       C  0.36272528  0.12393453  0.72031539     0.02900
C4826       C  0.35473278  0.13521819  0.73662781    -0.25900
H4827       H  0.34826323  0.14335547  0.80531725     0.07900
H4828       H  0.34119862  0.15381270  0.77031663     0.11500
H4829       H  0.38443895  0.09353702  0.78309861     0.11500
H4830       H  0.38903805  0.08853060  0.74698712     0.11200
H4831       H  0.38149881  0.09837982  0.71202308     0.11800
H4832       H  0.34498332  0.14815232  0.73373514     0.13700
C4833       C  0.45919962  0.11980265  0.89041034    -0.06300
C4834       C  0.46299122  0.13637079  0.90295059    -0.06200
C4835       C  0.48298838  0.14181896  0.90730561    -0.24400
C4836       C  0.49935749  0.13070905  0.89919871     0.17800
C4837       C  0.49561824  0.11429100  0.88628805     0.15000
C4838       C  0.47569790  0.10903748  0.88198743    -0.19400
C4839       C  0.51184330  0.10311328  0.87811697    -0.21200
C4840       C  0.53177084  0.10787782  0.88309373    -0.13800
C4841       C  0.53568856  0.12380770  0.89635216     0.02900
C4842       C  0.51938678  0.13539183  0.90409745    -0.25900
H4843       H  0.45059002  0.14490076  0.90951610     0.07900
H4844       H  0.48566079  0.15452921  0.91720337     0.11500
H4845       H  0.47313755  0.09622604  0.87217605     0.11500
H4846       H  0.50909412  0.09045121  0.86817045     0.11200
H4847       H  0.54404177  0.09873766  0.87711190     0.11800
H4848       H  0.52224777  0.14783201  0.91429298     0.13700
C4849       C  0.50565050  0.95774500  0.89865716    -0.06300
C4850       C  0.49020825  0.95530596  0.91299717    -0.06200
C4851       C  0.47614846  0.97072266  0.91635520    -0.24400
C4852       C  0.47714100  0.98858305  0.90507625     0.17800
C4853       C  0.49379134  0.99194944  0.89211553     0.15000
C4854       C  0.50829071  0.97660217  0.88935752    -0.19400
C4855       C  0.49453411  0.00975722  0.88064961    -0.21200
C4856       C  0.47791576  0.02295313  0.88031243    -0.13800
C4857       C  0.46053516  0.01857356  0.89164102     0.02900
C4858       C  0.46080792  0.00213725  0.90502885    -0.25900
H4859       H  0.48823452  0.94100248  0.92066846     0.07900
H4860       H  0.46366186  0.96805667  0.92659900     0.11500
H4861       H  0.52032138  0.97861054  0.87842121     0.11500
H4862       H  0.50729603  0.01273293  0.87084851     0.11200
H4863       H  0.47811708  0.03575484  0.87011775     0.11800
H4864       H  0.44756191  0.99888439  0.91409767     0.13700
C4865       C  0.38051911  0.11386547  0.97048800    -0.06300
C4866       C  0.39430450  0.12945478  0.97407447    -0.06200
C4867       C  0.40007281  0.13436480  0.99387119    -0.24400
C4868       C  0.39206716  0.12387186  0.01051945     0.17800
C4869       C  0.37805862  0.10830487  0.00718277     0.15000
C4870       C  0.37246654  0.10335695  0.98725488    -0.19400
C4871       C  0.36987875  0.09797002  0.02385261    -0.21200
C4872       C  0.37547219  0.10305761  0.04366147    -0.13800
C4873       C  0.38954207  0.11840270  0.04720540     0.02900
C4874       C  0.39781529  0.12869218  0.03043025    -0.25900
H4875       H  0.40076830  0.13774140  0.96156319     0.07900
H4876       H  0.41082218  0.14638967  0.99616327     0.11500
H4877       H  0.36179241  0.09128195  0.98483621     0.11500
H4878       H  0.35912064  0.08595206  0.02156876     0.11200
H4879       H  0.36899080  0.09481196  0.05619472     0.11800
H4880       H  0.40866942  0.14060632  0.03285308     0.13700
C4881       C  0.37879193  0.01293482  0.96463317    -0.06300
C4882       C  0.36608384  0.01707058  0.98115158    -0.06200
C4883       C  0.36516155  0.00367416  0.99738816    -0.24400
C4884       C  0.37691043  0.98597308  0.99727434     0.17800
C4885       C  0.39070117  0.98242347  0.98128499     0.15000
C4886       C  0.39172422  0.99606702  0.96519007    -0.19400
C4887       C  0.40231531  0.96466016  0.98101491    -0.21200
C4888       C  0.39928598  0.94990192  0.99568761    -0.13800
C4889       C  0.38482086  0.95283082  0.01098749     0.02900
C4890       C  0.37425642  0.97123030  0.01220835    -0.25900
H4891       H  0.35605927  0.03009343  0.98104917     0.07900
H4892       H  0.35459987  0.00669486  0.00956298     0.11500
H4893       H  0.40169617  0.99290540  0.95254945     0.11500
H4894       H  0.41306138  0.96177978  0.96896731     0.11200
H4895       H  0.40775143  0.93585942  0.99463561     0.11800
H4896       H  0.36304784  0.97353835  0.02396349     0.13700
C4897       C  0.37531134  0.63626078  0.79687266    -0.06300
C4898       C  0.39045213  0.62188669  0.79284895    -0.06200
C4899       C  0.39579643  0.61742202  0.77284006    -0.24400
C4900       C  0.38614041  0.62737670  0.75663985     0.17800
C4901       C  0.37041744  0.64130539  0.76050216     0.15000
C4902       C  0.36499562  0.64547202  0.78052991    -0.19400
C4903       C  0.36081617  0.65131309  0.74430037    -0.21200
C4904       C  0.36717956  0.64797596  0.72436350    -0.13800
C4905       C  0.38318690  0.63456861  0.72040147     0.02900
C4906       C  0.39232159  0.62405420  0.73667731    -0.25900
H4907       H  0.39853812  0.61459843  0.80510818     0.07900
H4908       H  0.40784627  0.60659499  0.77004124     0.11500
H4909       H  0.35310625  0.65648212  0.78335039     0.11500
H4910       H  0.34866742  0.66203443  0.74709417     0.11200
H4911       H  0.35992371  0.65616847  0.71215074     0.11800
H4912       H  0.40460491  0.61347718  0.73390691     0.13700
C4913       C  0.45128246  0.74439744  0.86523420    -0.06300
C4914       C  0.44865857  0.75952754  0.85050931    -0.06200
C4915       C  0.46284435  0.77478514  0.84828831    -0.24400
C4916       C  0.47983164  0.77518199  0.86082980     0.17800
C4917       C  0.48352869  0.75901566  0.87440397     0.15000
C4918       C  0.46931574  0.74351032  0.87632784    -0.19400
C4919       C  0.50060828  0.75944623  0.88687017    -0.21200
C4920       C  0.51299799  0.77641091  0.88701658    -0.13800
C4921       C  0.50848345  0.79317243  0.87470070     0.02900
C4922       C  0.49239578  0.79210039  0.86099215    -0.25900
H4923       H  0.43500259  0.76027582  0.84152176     0.07900
H4924       H  0.45993230  0.78687305  0.83758141     0.11500
H4925       H  0.47149212  0.73180935  0.88762490     0.11500
H4926       H  0.50382555  0.74711922  0.89720966     0.11200
H4927       H  0.52548289  0.77683039  0.89756882     0.11800
H4928       H  0.48896393  0.80488310  0.85126943     0.13700
C4929       C  0.45948374  0.63820918  0.87754044    -0.06300
C4930       C  0.46350099  0.62152363  0.86508804    -0.06200
C4931       C  0.48354337  0.61550749  0.86115151    -0.24400
C4932       C  0.49986186  0.62606737  0.86963646     0.17800
C4933       C  0.49595311  0.64246965  0.88265266     0.15000
C4934       C  0.47589535  0.64836357  0.88651363    -0.19400
C4935       C  0.51217554  0.65298828  0.89128581    -0.21200
C4936       C  0.53218555  0.64763566  0.88666070    -0.13800
C4937       C  0.53631612  0.63173103  0.87326888     0.02900
C4938       C  0.52000087  0.62081676  0.86503510    -0.25900
H4939       H  0.45121072  0.61342551  0.85809000     0.07900
H4940       H  0.48629490  0.60278609  0.85120723     0.11500
H4941       H  0.47312384  0.66117833  0.89634063     0.11500
H4942       H  0.50937796  0.66558926  0.90137100     0.11200
H4943       H  0.54440009  0.65625024  0.89315127     0.11800
H4944       H  0.52294587  0.60839807  0.85475527     0.13700
C4945       C  0.37058084  0.64197048  0.97025830    -0.06300
C4946       C  0.35758605  0.62575158  0.97396785    -0.06200
C4947       C  0.35271116  0.62019676  0.99377392    -0.24400
C4948       C  0.36076366  0.63073871  0.01028239     0.17800
C4949       C  0.37436158  0.64665996  0.00689495     0.15000
C4950       C  0.37923150  0.65214477  0.98689517    -0.19400
C4951       C  0.38242829  0.65705186  0.02358097    -0.21200
C4952       C  0.37658427  0.65207824  0.04340416    -0.13800
C4953       C  0.36257374  0.63664718  0.04683966     0.02900
C4954       C  0.35503837  0.62586728  0.03009775    -0.25900
H4955       H  0.35083145  0.61762133  0.96153865     0.07900
H4956       H  0.34232789  0.60785500  0.99617780     0.11500
H4957       H  0.38943367  0.66460300  0.98430777     0.11500
H4958       H  0.39297295  0.66926923  0.02127744     0.11200
H4959       H  0.38260383  0.66059482  0.05594845     0.11800
H4960       H  0.34432641  0.61378756  0.03241561     0.13700
C4961       C  0.36358132  0.74614848  0.96028685    -0.06300
C4962       C  0.34791803  0.76055445  0.95900109    -0.06200
C4963       C  0.34453148  0.77417617  0.97464282    -0.24400
C4964       C  0.35694680  0.77378147  0.99172158     0.17800
C4965       C  0.37190191  0.75851031  0.99383757     0.15000
C4966       C  0.37494727  0.74452306  0.97815177    -0.19400
C4967       C  0.38437932  0.75840262  0.01097823    -0.21200
C4968       C  0.38313375  0.77419975  0.02497706    -0.13800
C4969       C  0.36931305  0.79017025  0.02202399     0.02900
C4970       C  0.35557831  0.78929271  0.00595865    -0.25900
H4971       H  0.33875447  0.76182933  0.94549895     0.07900
H4972       H  0.33287554  0.78566721  0.97291502     0.11500
H4973       H  0.38701017  0.73337863  0.97926486     0.11500
H4974       H  0.39580765  0.74673810  0.01298010     0.11200
H4975       H  0.39380855  0.77456856  0.03735558     0.11800
H4976       H  0.34471759  0.80147389  0.00373107     0.13700
C4977       C  0.20877188  0.63665309  0.89778992    -0.06300
C4978       C  0.21286562  0.64892297  0.88103721    -0.06200
C4979       C  0.23288799  0.65242506  0.87515248    -0.24400
C4980       C  0.24908630  0.64365005  0.88591877     0.17800
C4981       C  0.24515784  0.63116259  0.90266829     0.15000
C4982       C  0.22507777  0.62782001  0.90851275    -0.19400
C4983       C  0.26138895  0.62235972  0.91338499    -0.21200
C4984       C  0.28144631  0.62631537  0.90784362    -0.13800
C4985       C  0.28551820  0.63915545  0.89155047     0.02900
C4986       C  0.26916108  0.64744494  0.88043418    -0.25900
H4987       H  0.20063347  0.65586442  0.87258217     0.07900
H4988       H  0.23571379  0.66206994  0.86224978     0.11500
H4989       H  0.22219373  0.61826661  0.92148001     0.11500
H4990       H  0.25855986  0.61268017  0.92626543     0.11200
H4991       H  0.29371049  0.61986210  0.91663642     0.11800
H4992       H  0.27200865  0.65728754  0.86767887     0.13700
C4993       C  0.13484045  0.96621849  0.88138881    -0.06300
C4994       C  0.12048584  0.97022852  0.86633625    -0.06200
C4995       C  0.11519794  0.99015784  0.86151954    -0.24400
C4996       C  0.12413699  0.00639006  0.87174136     0.17800
C4997       C  0.13827791  0.00263247  0.88721472     0.15000
C4998       C  0.14354126  0.98254382  0.89194484    -0.19400
C4999       C  0.14712906  0.01905309  0.89735375    -0.21200
C5000       C  0.14237959  0.03905845  0.89178788    -0.13800
C5001       C  0.12869297  0.04286312  0.87604740     0.02900
C5002       C  0.11941344  0.02633047  0.86639906    -0.25900
H5003       H  0.11370839  0.95798271  0.85797267     0.07900
H5004       H  0.10432106  0.99289207  0.84957476     0.11500
H5005       H  0.15462923  0.97964638  0.90366424     0.11500
H5006       H  0.15797307  0.01641329  0.90934253     0.11200
H5007       H  0.14969436  0.05145532  0.89943294     0.11800
H5008       H  0.10866419  0.02889731  0.85429584     0.13700
C5009       C  0.13754784  0.86912162  0.96988592    -0.06300
C5010       C  0.12071887  0.85692746  0.97363533    -0.06200
C5011       C  0.11482328  0.85263570  0.99355093    -0.24400
C5012       C  0.12558056  0.86060098  0.01002459     0.17800
C5013       C  0.14240651  0.87300310  0.00641954     0.15000
C5014       C  0.14830998  0.87705492  0.98646789    -0.19400
C5015       C  0.15306378  0.88117113  0.02283195    -0.21200
C5016       C  0.14716692  0.87700992  0.04272851    -0.13800
C5017       C  0.13066412  0.86443911  0.04653872     0.02900
C5018       C  0.11989466  0.85632837  0.03003313    -0.25900
H5019       H  0.11220163  0.85066175  0.96121063     0.07900
H5020       H  0.10183720  0.84310208  0.99607430     0.11500
H5021       H  0.16132572  0.88655221  0.98390125     0.11500
H5022       H  0.16603880  0.89071681  0.02027163     0.11200
H5023       H  0.15577720  0.88323160  0.05511728     0.11800
H5024       H  0.10707828  0.84660402  0.03274382     0.13700
C5025       C  0.24266295  0.86470474  0.95849410    -0.06300
C5026       C  0.25774528  0.84982619  0.95617018    -0.06200
C5027       C  0.27237120  0.84694365  0.97104055    -0.24400
C5028       C  0.27233089  0.85918666  0.98824775     0.17800
C5029       C  0.25639450  0.87325806  0.99136196     0.15000
C5030       C  0.24140320  0.87566289  0.97658301    -0.19400
C5031       C  0.25655409  0.88565699  0.00849212    -0.21200
C5032       C  0.27310608  0.88520383  0.02155914    -0.13800
C5033       C  0.28962580  0.87225454  0.01770943     0.02900
C5034       C  0.28869697  0.85860480  0.00159930    -0.25900
H5035       H  0.25875469  0.84102595  0.94242485     0.07900
H5036       H  0.28435132  0.83592729  0.96854679     0.11500
H5037       H  0.22975646  0.88715466  0.97846528     0.11500
H5038       H  0.24440457  0.89641911  0.01121613     0.11200
H5039       H  0.27343859  0.89573238  0.03404358     0.11800
H5040       H  0.30130709  0.84840828  0.99868984     0.13700
C5041       C  0.23791513  0.96234027  0.87985129    -0.06300
C5042       C  0.23446913  0.97831676  0.89343135    -0.06200
C5043       C  0.24741096  0.99490014  0.89381617    -0.24400
C5044       C  0.26401193  0.99567510  0.88067432     0.17800
C5045       C  0.26675066  0.98025899  0.86611308     0.15000
C5046       C  0.25358421  0.96382564  0.86568156    -0.19400
C5047       C  0.28336988  0.98083598  0.85305523    -0.21200
C5048       C  0.29804625  0.99559253  0.85547121    -0.13800
C5049       C  0.29617115  0.01018947  0.87075100     0.02900
C5050       C  0.27862705  0.01079884  0.88268506    -0.25900
H5051       H  0.22236267  0.97754809  0.90440641     0.07900
H5052       H  0.24496998  0.00662841  0.90497821     0.11500
H5053       H  0.25620351  0.95166242  0.85500545     0.11500
H5054       H  0.28556846  0.96926770  0.84167071     0.11200
H5055       H  0.31135227  0.99504295  0.84594241     0.11800
H5056       H  0.27709656  0.02203065  0.89450538     0.13700
C5057       C  0.23631049  0.79543918  0.87687123    -0.06300
C5058       C  0.23409856  0.78081941  0.86171373    -0.06200
C5059       C  0.24602422  0.76333841  0.86191386    -0.24400
C5060       C  0.26018419  0.76028061  0.87735760     0.17800
C5061       C  0.26155931  0.77445237  0.89329838     0.15000
C5062       C  0.24959696  0.79194734  0.89293312    -0.19400
C5063       C  0.27579015  0.77155031  0.90866305    -0.21200
C5064       C  0.28984274  0.75585618  0.90722251    -0.13800
C5065       C  0.28952670  0.74267928  0.89065537     0.02900
C5066       C  0.27398916  0.74416201  0.87636821    -0.25900
H5067       H  0.22382455  0.78334979  0.84921858     0.07900
H5068       H  0.24474203  0.75264744  0.84961138     0.11500
H5069       H  0.25112693  0.80318165  0.90473812     0.11500
H5070       H  0.27686475  0.78212541  0.92109554     0.11200
H5071       H  0.30175621  0.75474615  0.91840368     0.11800
H5072       H  0.27387190  0.73407625  0.86347593     0.13700
C5073       C  0.13532157  0.79296241  0.88777220    -0.06300
C5074       C  0.11961412  0.78945239  0.90151672    -0.06200
C5075       C  0.11421547  0.76966663  0.90657550    -0.24400
C5076       C  0.12443801  0.75307427  0.89794477     0.17800
C5077       C  0.14015458  0.75637331  0.88398736     0.15000
C5078       C  0.14548317  0.77626238  0.87900558    -0.19400
C5079       C  0.15031861  0.73972019  0.87534292    -0.21200
C5080       C  0.14499197  0.71991986  0.88057989    -0.13800
C5081       C  0.12948973  0.71650046  0.89458320     0.02900
C5082       C  0.11925893  0.73324048  0.90314143    -0.25900
H5083       H  0.11159364  0.80199059  0.90843807     0.07900
H5084       H  0.10209253  0.76733509  0.91730703     0.11500
H5085       H  0.15764957  0.77869618  0.86833983     0.11500
H5086       H  0.16243977  0.74201714  0.86460514     0.11200
H5087       H  0.15312134  0.70733054  0.87388062     0.11800
H5088       H  0.10721355  0.73088747  0.91396249     0.13700
C5089       C  0.12517384  0.89624685  0.72048396    -0.06300
C5090       C  0.13315623  0.87695103  0.72447425    -0.06200
C5091       C  0.13547523  0.87021001  0.74445057    -0.24400
C5092       C  0.12996391  0.88270969  0.76077694     0.17800
C5093       C  0.12165914  0.90201766  0.75699482     0.15000
C5094       C  0.11931262  0.90862239  0.73693022    -0.19400
C5095       C  0.11620063  0.91452304  0.77336096    -0.21200
C5096       C  0.11968253  0.90825029  0.79334410    -0.13800
C5097       C  0.12868581  0.88940364  0.79723084     0.02900
C5098       C  0.13326653  0.87650993  0.78081383    -0.25900
H5099       H  0.13754659  0.86707629  0.71217646     0.07900
H5100       H  0.14179724  0.85529559  0.74714263     0.11500
H5101       H  0.11307511  0.92356687  0.73416198     0.11500
H5102       H  0.10978743  0.92940465  0.77068333     0.11200
H5103       H  0.11631262  0.91850677  0.80564858     0.11800
H5104       H  0.14020637  0.86187355  0.78361711     0.13700
C5105       C  0.37939916  0.79213145  0.64325341    -0.06300
C5106       C  0.39623562  0.78862553  0.63080369    -0.06200
C5107       C  0.40239455  0.76879677  0.62619146    -0.24400
C5108       C  0.39173776  0.75213343  0.63384591     0.17800
C5109       C  0.37446698  0.75549758  0.64591486     0.15000
C5110       C  0.36842145  0.77539903  0.65048127    -0.19400
C5111       C  0.36373220  0.73889211  0.65351448    -0.21200
C5112       C  0.37014979  0.71908067  0.64936711    -0.13800
C5113       C  0.38740177  0.71547893  0.63751949     0.02900
C5114       C  0.39811083  0.73218535  0.62978158    -0.25900
H5115       H  0.40498086  0.80117580  0.62514781     0.07900
H5116       H  0.41567578  0.76648705  0.61686532     0.11500
H5117       H  0.35530019  0.77783944  0.66001592     0.11500
H5118       H  0.35040772  0.74123059  0.66277394     0.11200
H5119       H  0.36162500  0.70657769  0.65545012     0.11800
H5120       H  0.41147214  0.72970165  0.62060332     0.13700
C5121       C  0.53655074  0.86184571  0.64021603    -0.06300
C5122       C  0.53259942  0.87707257  0.65441666    -0.06200
C5123       C  0.51269183  0.88226772  0.65949937    -0.24400
C5124       C  0.49634551  0.87246076  0.65032135     0.17800
C5125       C  0.50000668  0.85726073  0.63585430     0.15000
C5126       C  0.52009774  0.85197327  0.63096715    -0.19400
C5127       C  0.48349193  0.84766969  0.62659834    -0.21200
C5128       C  0.46352646  0.85311188  0.63167322    -0.13800
C5129       C  0.45978874  0.86811862  0.64618504     0.02900
C5130       C  0.47639666  0.87766360  0.65541725    -0.25900
H5131       H  0.54491733  0.88480843  0.66178278     0.07900
H5132       H  0.51007384  0.89397743  0.67064192     0.11500
H5133       H  0.52290353  0.84020331  0.61992690     0.11500
H5134       H  0.48602218  0.83595348  0.61544601     0.11200
H5135       H  0.45107134  0.84547062  0.62444955     0.11800
H5136       H  0.47385294  0.88931610  0.66664358     0.13700
C5137       C  0.38140811  0.79485360  0.74565161    -0.06300
C5138       C  0.39829196  0.79458431  0.75847008    -0.06200
C5139       C  0.40054429  0.77951959  0.77296347    -0.24400
C5140       C  0.38574745  0.76471368  0.77501505     0.17800
C5141       C  0.36953898  0.76388061  0.76109626     0.15000
C5142       C  0.36765268  0.77885240  0.74618083    -0.19400
C5143       C  0.35472017  0.74902801  0.76336509    -0.21200
C5144       C  0.35516367  0.73616151  0.78011892    -0.13800
C5145       C  0.37040172  0.73807221  0.79473533     0.02900
C5146       C  0.38611630  0.75172585  0.79164569    -0.25900
H5147       H  0.40917846  0.80671130  0.75803693     0.07900
H5148       H  0.41318052  0.78018117  0.78334892     0.11500
H5149       H  0.35458027  0.77905786  0.73631013     0.11500
H5150       H  0.34227072  0.74804999  0.75279645     0.11200
H5151       H  0.34294590  0.72559346  0.78226980     0.11800
H5152       H  0.39801604  0.75304271  0.80282410     0.13700
C5153       C  0.45506602  0.86604230  0.74773777    -0.06300
C5154       C  0.45376707  0.85005215  0.76163946    -0.06200
C5155       C  0.46856623  0.84730690  0.77630731    -0.24400
C5156       C  0.48471501  0.86071902  0.77744736     0.17800
C5157       C  0.48709832  0.87580405  0.76247415     0.15000
C5158       C  0.47234864  0.87816262  0.74741309    -0.19400
C5159       C  0.50327021  0.88927482  0.76385309    -0.21200
C5160       C  0.51576923  0.88897899  0.78085391    -0.13800
C5161       C  0.51224470  0.87515222  0.79655540     0.02900
C5162       C  0.49747914  0.86033577  0.79422920    -0.25900
H5163       H  0.44067601  0.84034033  0.76189558     0.07900
H5164       H  0.46668261  0.83551885  0.78751895     0.11500
H5165       H  0.47341627  0.89050324  0.73668622     0.11500
H5166       H  0.50549875  0.90078189  0.75242785     0.11200
H5167       H  0.52729826  0.90039343  0.78230183     0.11800
H5168       H  0.49493721  0.84942886  0.80618848     0.13700
C5169       C  0.36756285  0.96606216  0.64624918    -0.06300
C5170       C  0.35348436  0.97029855  0.63095715    -0.06200
C5171       C  0.34902530  0.99037935  0.62556895    -0.24400
C5172       C  0.35864350  0.00657080  0.63531694     0.17800
C5173       C  0.37294893  0.00253325  0.65056920     0.15000
C5174       C  0.37726175  0.98237761  0.65593591    -0.19400
C5175       C  0.38261234  0.01873625  0.66025958    -0.21200
C5176       C  0.37802631  0.03883048  0.65498403    -0.13800
C5177       C  0.36365483  0.04307023  0.63997032     0.02900
C5178       C  0.35411008  0.02672589  0.63015754    -0.25900
H5179       H  0.34578175  0.95812504  0.62333719     0.07900
H5180       H  0.33797961  0.99325690  0.61381705     0.11500
H5181       H  0.38821441  0.97943491  0.66777042     0.11500
H5182       H  0.39365554  0.01586055  0.67201817     0.11200
H5183       H  0.38551309  0.05101858  0.66279563     0.11800
H5184       H  0.34297330  0.02964246  0.61849317     0.13700
C5185       C  0.36377176  0.95870575  0.74927005    -0.06300
C5186       C  0.34870646  0.95693231  0.76412275    -0.06200
C5187       C  0.34676024  0.97135694  0.77926399    -0.24400
C5188       C  0.35992559  0.98773944  0.77982364     0.17800
C5189       C  0.37382273  0.99075390  0.76385796     0.15000
C5190       C  0.37547002  0.97628099  0.74841459    -0.19400
C5191       C  0.38685022  0.00734053  0.76451895    -0.21200
C5192       C  0.38721377  0.01979433  0.78156805    -0.13800
C5193       C  0.37456472  0.01578354  0.79812769     0.02900
C5194       C  0.36034996  0.00029898  0.79677525    -0.25900
H5195       H  0.33923049  0.94368746  0.76478658     0.07900
H5196       H  0.33578773  0.96903623  0.79119242     0.11500
H5197       H  0.38700707  0.97781056  0.73688894     0.11500
H5198       H  0.39742517  0.01008376  0.75233280     0.11200
H5199       H  0.39813096  0.03186343  0.78224223     0.11800
H5200       H  0.35031435  0.99734797  0.80938503     0.13700
C5201       C  0.29305121  0.89113815  0.74854333    -0.06300
C5202       C  0.29577970  0.90588978  0.76353428    -0.06200
C5203       C  0.28099402  0.90935225  0.77805961    -0.24400
C5204       C  0.26328334  0.89802940  0.77786198     0.17800
C5205       C  0.25965724  0.88430549  0.76191005     0.15000
C5206       C  0.27453687  0.88111404  0.74710987    -0.19400
C5207       C  0.24185667  0.87299392  0.76189819    -0.21200
C5208       C  0.22863284  0.87408196  0.77832222    -0.13800
C5209       C  0.23306342  0.88651990  0.79488961     0.02900
C5210       C  0.24986866  0.89918546  0.79411708    -0.25900
H5211       H  0.30986029  0.91403583  0.76470015     0.07900
H5212       H  0.28389259  0.92007644  0.79004236     0.11500
H5213       H  0.27235732  0.86975941  0.73554833     0.11500
H5214       H  0.23870235  0.86254790  0.74973847     0.11200
H5215       H  0.21562205  0.86427182  0.77859730     0.11800
H5216       H  0.25323412  0.90896816  0.80677973     0.13700
C5217       C  0.20936654  0.89493478  0.63979181    -0.06300
C5218       C  0.21298433  0.87981181  0.65422458    -0.06200
C5219       C  0.23285110  0.87386287  0.65890671    -0.24400
C5220       C  0.24940408  0.88291878  0.64918177     0.17800
C5221       C  0.24595458  0.89789332  0.63442204     0.15000
C5222       C  0.22602558  0.90378867  0.62986014    -0.19400
C5223       C  0.26250689  0.90689202  0.62464241    -0.21200
C5224       C  0.28239037  0.90137045  0.62974131    -0.13800
C5225       C  0.28602476  0.88680649  0.64472255     0.02900
C5226       C  0.26934900  0.87746752  0.65418016    -0.25900
H5227       H  0.20049978  0.87279719  0.66206458     0.07900
H5228       H  0.23528333  0.86231038  0.67026577     0.11500
H5229       H  0.22353791  0.91544177  0.61860488     0.11500
H5230       H  0.26006989  0.91838574  0.61322134     0.11200
H5231       H  0.29488460  0.90875313  0.62227160     0.11800
H5232       H  0.27184226  0.86608727  0.66570699     0.13700
loop_ 
_geom_bond_atom_site_label_1 
_geom_bond_atom_site_label_2 
_geom_bond_distance 
_geom_bond_site_symmetry_2 
_ccdc_geom_bond_type 
N1            N2   1.311       .  A
N1            N7   1.311       .  A
N1          Mn30   2.155       .  S
N2            C9   1.345       .  A
N3            N5   1.311       .  A
N3            N4   1.322       .  A
N3          Mn19   2.193       .  S
N4           C10   1.355       .  A
N5            N6   1.314       .  A
N5          Mn30   2.170       .  S
N6           C10   1.348       .  A
N7            N8   1.325       .  A
N7          Mn19   2.207       .  S
N8            C9   1.359       .  A
C9         C5201   1.468       .  S
C10        C5137   1.465       .  S
N11          N17   1.318       .  A
N11          N12   1.331       .  A
N11         Mn41   2.264       .  S
N12          C20   1.365       .  A
N13          N14   1.312       .  A
N13          N15   1.318       .  A
N13         Mn19   2.164       .  S
N14          C21   1.343       .  A
N15          N16   1.332       .  A
N15         Mn41   2.271       .  S
N16          C21   1.367       .  A
N17          N18   1.315       .  A
N17         Mn19   2.180       .  S
N18          C20   1.346       .  A
Mn19        Cl43   2.550       .  S
C20        C5105   1.489       .  S
C21        C5225   1.487       .  S
N22          N23   1.313       .  A
N22          N28   1.310       .  A
N22         Mn30   2.161       .  S
N23          C31   1.348       .  A
N24          N26   1.311       .  A
N24          N25   1.324       .  A
N24         Mn42   2.201       .  S
N25          C32   1.358       .  A
N26          N27   1.313       .  A
N26         Mn30   2.173       .  S
N27          C32   1.348       .  A
N28          N29   1.323       .  A
N28         Mn42   2.202       .  S
N29          C31   1.357       .  A
Mn30        Cl43   2.529       .  S
C31        C5153   1.468       .  S
C32        C5185   1.472       .  S
N33          N34   1.332       .  A
N33          N39   1.318       .  A
N33         Mn41   2.272       .  S
N34          C44   1.367       .  A
N35          N36   1.312       .  A
N35          N37   1.318       .  A
N35         Mn42   2.168       .  S
N36          C45   1.343       .  A
N37          N38   1.332       .  A
N37         Mn41   2.268       .  S
N38          C45   1.366       .  A
N39          N40   1.314       .  A
N39         Mn42   2.170       .  S
N40          C44   1.344       .  A
Mn41        Cl43   2.546       .  S
Mn42        Cl43   2.550       .  S
C44        C5169   1.491       .  S
C45        C5129   1.488       .  S
N46          N47   1.318       .  A
N46          N52   1.314       .  A
N46         Mn75   2.183       .  S
N47          C54   1.351       .  A
N48          N50   1.312       .  A
N48          N49   1.319       .  A
N48         Mn64   2.196       .  S
N49          C55   1.354       .  A
N50          N51   1.316       .  A
N50         Mn75   2.166       .  S
N51          C55   1.348       .  A
N52          N53   1.318       .  A
N52         Mn64   2.193       .  S
N53          C54   1.354       .  A
C54        C5209   1.469       .  S
C55        C5057   1.462       .  S
N56          N62   1.313       .  A
N56          N57   1.321       .  A
N56         Mn86   2.194       .  S
N57          C65   1.354       .  A
N58          N59   1.320       .  A
N58          N60   1.313       .  A
N58         Mn64   2.203       .  S
N59          C66   1.355       .  A
N60          N61   1.320       .  A
N60         Mn86   2.187       .  S
N61          C66   1.352       .  A
N62          N63   1.316       .  A
N62         Mn64   2.185       .  S
N63          C65   1.351       .  A
Mn64        Cl88   2.546       .  S
C65        C5025   1.469       .  S
C66        C5041   1.475       .  S
N67          N68   1.314       .  A
N67          N73   1.317       .  A
N67         Mn75   2.168       .  S
N68          C76   1.345       .  A
N69          N71   1.316       .  A
N69          N70   1.333       .  A
N69         Mn87   2.273       .  S
N70          C77   1.368       .  A
N71          N72   1.311       .  A
N71         Mn75   2.149       .  S
N72          C77   1.340       .  A
N73          N74   1.329       .  A
N73         Mn87   2.254       .  S
N74          C76   1.364       .  A
Mn75        Cl88   2.530       .  S
C76        C5073   1.484       .  S
C77        C5097   1.485       .  S
N78          N79   1.314       .  A
N78          N84   1.318       .  A
N78         Mn86   2.172       .  S
N79          C89   1.344       .  A
N80          N81   1.331       .  A
N80          N82   1.317       .  A
N80         Mn87   2.262       .  S
N81          C90   1.365       .  A
N82          N83   1.313       .  A
N82         Mn86   2.166       .  S
N83          C90   1.344       .  A
N84          N85   1.328       .  A
N84         Mn87   2.251       .  S
N85          C89   1.363       .  A
Mn86        Cl88   2.533       .  S
Mn87        Cl88   2.566       .  S
C89        C4993   1.482       .  S
C90        C5009   1.488       .  S
N91          N92   1.324       .  A
N91          N97   1.312       .  A
N91        Mn120   2.215       .  S
N92          C99   1.358       .  A
N93          N95   1.312       .  A
N93          N94   1.316       .  A
N93        Mn109   2.183       .  S
N94         C100   1.350       .  A
N95          N96   1.323       .  A
N95        Mn120   2.194       .  S
N96         C100   1.355       .  A
N97          N98   1.313       .  A
N97        Mn109   2.162       .  S
N98          C99   1.347       .  A
C99        C4913   1.472       .  S
C100       C4961   1.472       .  S
N101        N107   1.310       .  A
N101        N102   1.321       .  A
N101       Mn131   2.188       .  S
N102        C110   1.354       .  A
N103        N104   1.318       .  A
N103        N105   1.311       .  A
N103       Mn109   2.193       .  S
N104        C111   1.354       .  A
N105        N106   1.319       .  A
N105       Mn131   2.172       .  S
N106        C111   1.350       .  A
N107        N108   1.313       .  A
N107       Mn109   2.165       .  S
N108        C110   1.348       .  A
Mn109      Cl133   2.541       .  S
C110       C5065   1.460       .  S
C111       C5145   1.467       .  S
N112        N113   1.318       .  A
N112        N118   1.320       .  A
N112       Mn120   2.191       .  S
N113        C121   1.348       .  A
N114        N116   1.319       .  A
N114        N115   1.332       .  A
N114       Mn132   2.270       .  S
N115        C122   1.367       .  A
N116        N117   1.312       .  A
N116       Mn120   2.166       .  S
N117        C122   1.343       .  A
N118        N119   1.328       .  A
N118       Mn132   2.258       .  S
N119        C121   1.363       .  A
Mn120      Cl133   2.539       .  S
C121       C4945   1.490       .  S
C122       C4929   1.488       .  S
N123        N124   1.310       .  A
N123        N129   1.318       .  A
N123       Mn131   2.157       .  S
N124        C134   1.341       .  A
N125        N126   1.333       .  A
N125        N127   1.317       .  A
N125       Mn132   2.277       .  S
N126        C135   1.369       .  A
N127        N128   1.309       .  A
N127       Mn131   2.140       .  S
N128        C135   1.339       .  A
N129        N130   1.331       .  A
N129       Mn132   2.264       .  S
N130        C134   1.366       .  A
Mn131      Cl133   2.537       .  S
Mn132      Cl133   2.557       .  S
C134       C4897   1.483       .  S
C135       C4985   1.484       .  S
N136        N137   1.323       .  A
N136        N142   1.315       .  A
N136       Mn165   2.208       .  S
N137        C144   1.356       .  A
N138        N140   1.312       .  A
N138        N139   1.319       .  A
N138       Mn154   2.190       .  S
N139        C145   1.354       .  A
N140        N141   1.317       .  A
N140       Mn165   2.176       .  S
N141        C145   1.350       .  A
N142        N143   1.316       .  A
N142       Mn154   2.182       .  S
N143        C144   1.350       .  A
C144       C5049   1.472       .  S
C145       C4881   1.468       .  S
N146        N152   1.312       .  A
N146        N147   1.321       .  A
N146       Mn176   2.193       .  S
N147        C155   1.354       .  A
N148        N149   1.319       .  A
N148        N150   1.311       .  A
N148       Mn154   2.198       .  S
N149        C156   1.355       .  A
N150        N151   1.320       .  A
N150       Mn176   2.179       .  S
N151        C156   1.351       .  A
N152        N153   1.318       .  A
N152       Mn154   2.191       .  S
N153        C155   1.353       .  A
Mn154      Cl178   2.545       .  S
C155       C4857   1.473       .  S
C156       C5193   1.472       .  S
N157        N158   1.317       .  A
N157        N163   1.318       .  A
N157       Mn165   2.188       .  S
N158        C166   1.347       .  A
N159        N161   1.317       .  A
N159        N160   1.331       .  A
N159       Mn177   2.265       .  S
N160        C167   1.366       .  A
N161        N162   1.315       .  A
N161       Mn165   2.172       .  S
N162        C167   1.345       .  A
N163        N164   1.331       .  A
N163       Mn177   2.263       .  S
N164        C166   1.366       .  A
Mn165      Cl178   2.532       .  S
C166       C4865   1.495       .  S
C167       C4809   1.492       .  S
N168        N169   1.311       .  A
N168        N174   1.318       .  A
N168       Mn176   2.163       .  S
N169        C179   1.343       .  A
N170        N171   1.333       .  A
N170        N172   1.315       .  A
N170       Mn177   2.259       .  S
N171        C180   1.367       .  A
N172        N173   1.307       .  A
N172       Mn176   2.141       .  S
N173        C180   1.339       .  A
N174        N175   1.331       .  A
N174       Mn177   2.259       .  S
N175        C179   1.365       .  A
Mn176      Cl178   2.526       .  S
Mn177      Cl178   2.572       .  S
C179       C4817   1.483       .  S
C180       C4833   1.481       .  S
N181        N182   1.322       .  A
N181        N187   1.313       .  A
N181       Mn210   2.198       .  S
N182        C189   1.354       .  A
N183        N185   1.311       .  A
N183        N184   1.316       .  A
N183       Mn199   2.189       .  S
N184        C190   1.353       .  A
N185        N186   1.318       .  A
N185       Mn210   2.167       .  S
N186        C190   1.350       .  A
N187        N188   1.316       .  A
N187       Mn199   2.185       .  S
N188        C189   1.352       .  A
C189       C4969   1.472       .  S
C190       C4777   1.463       .  S
N191        N197   1.313       .  A
N191        N192   1.322       .  A
N191       Mn221   2.203       .  S
N192        C200   1.357       .  A
N193        N194   1.320       .  A
N193        N195   1.312       .  A
N193       Mn199   2.198       .  S
N194        C201   1.356       .  A
N195        N196   1.317       .  A
N195       Mn221   2.179       .  S
N196        C201   1.350       .  A
N197        N198   1.314       .  A
N197       Mn199   2.170       .  S
N198        C200   1.347       .  A
Mn199      Cl223   2.540       .  S
C200       C4889   1.468       .  S
C201       C5033   1.471       .  S
N202        N203   1.314       .  A
N202        N208   1.317       .  A
N202       Mn210   2.175       .  S
N203        C211   1.345       .  A
N204        N206   1.315       .  A
N204        N205   1.333       .  A
N204       Mn222   2.264       .  S
N205        C212   1.368       .  A
N206        N207   1.307       .  A
N206       Mn210   2.140       .  S
N207        C212   1.339       .  A
N208        N209   1.330       .  A
N208       Mn222   2.257       .  S
N209        C211   1.365       .  A
Mn210      Cl223   2.530       .  S
C211       C4761   1.488       .  S
C212       C4721   1.484       .  S
N213        N214   1.314       .  A
N213        N219   1.318       .  A
N213       Mn221   2.173       .  S
N214        C224   1.344       .  A
N215        N216   1.328       .  A
N215        N217   1.317       .  A
N215       Mn222   2.248       .  S
N216        C225   1.362       .  A
N217        N218   1.315       .  A
N217       Mn221   2.171       .  S
N218        C225   1.346       .  A
N219        N220   1.329       .  A
N219       Mn222   2.253       .  S
N220        C224   1.364       .  A
Mn221      Cl223   2.532       .  S
Mn222      Cl223   2.566       .  S
C224       C4745   1.484       .  S
C225       C4785   1.483       .  S
N226        N227   1.318       .  A
N226        N232   1.312       .  A
N226       Mn255   2.180       .  S
N227        C234   1.350       .  A
N228        N230   1.312       .  A
N228        N229   1.316       .  A
N228       Mn244   2.184       .  S
N229        C235   1.350       .  A
N230        N231   1.322       .  A
N230       Mn255   2.191       .  S
N231        C235   1.355       .  A
N232        N233   1.318       .  A
N232       Mn244   2.186       .  S
N233        C234   1.354       .  A
C234       C5161   1.468       .  S
C235       C4849   1.470       .  S
N236        N242   1.311       .  A
N236        N237   1.322       .  A
N236       Mn266   2.190       .  S
N237        C245   1.355       .  A
N238        N239   1.321       .  A
N238        N240   1.313       .  A
N238       Mn244   2.197       .  S
N239        C246   1.355       .  A
N240        N241   1.318       .  A
N240       Mn266   2.190       .  S
N241        C246   1.351       .  A
N242        N243   1.313       .  A
N242       Mn244   2.166       .  S
N243        C245   1.347       .  A
Mn244      Cl268   2.543       .  S
C245       C4769   1.464       .  S
C246       C4921   1.474       .  S
N247        N248   1.311       .  A
N247        N253   1.316       .  A
N247       Mn255   2.159       .  S
N248        C256   1.343       .  A
N249        N251   1.317       .  A
N249        N250   1.333       .  A
N249       Mn267   2.275       .  S
N250        C257   1.369       .  A
N251        N252   1.311       .  A
N251       Mn255   2.158       .  S
N252        C257   1.341       .  A
N253        N254   1.331       .  A
N253       Mn267   2.258       .  S
N254        C256   1.365       .  A
Mn255      Cl268   2.528       .  S
C256       C4689   1.485       .  S
C257       C4673   1.488       .  S
N258        N259   1.310       .  A
N258        N264   1.317       .  A
N258       Mn266   2.156       .  S
N259        C269   1.341       .  A
N260        N261   1.329       .  A
N260        N262   1.318       .  A
N260       Mn267   2.260       .  S
N261        C270   1.364       .  A
N262        N263   1.316       .  A
N262       Mn266   2.172       .  S
N263        C270   1.346       .  A
N264        N265   1.333       .  A
N264       Mn267   2.267       .  S
N265        C269   1.367       .  A
Mn266      Cl268   2.528       .  S
Mn267      Cl268   2.568       .  S
C269       C4657   1.486       .  S
C270       C4705   1.487       .  S
N271        N272   1.330       .  A
N271        N277   1.318       .  A
N271       Mn300   2.258       .  S
N272        C279   1.364       .  A
N273        N275   1.317       .  A
N273        N274   1.316       .  A
N273       Mn289   2.180       .  S
N274        C280   1.347       .  A
N275        N276   1.327       .  A
N275       Mn300   2.246       .  S
N276        C280   1.362       .  A
N277        N278   1.315       .  A
N277       Mn289   2.178       .  S
N278        C279   1.346       .  A
C279       C4649   1.487       .  S
C280       C4561   1.485       .  S
N281        N287   1.313       .  A
N281        N282   1.315       .  A
N281       Mn311   2.178       .  S
N282        C290   1.349       .  A
N283        N284   1.321       .  A
N283        N285   1.313       .  A
N283       Mn289   2.198       .  S
N284        C291   1.355       .  A
N285        N286   1.316       .  A
N285       Mn311   2.182       .  S
N286        C291   1.350       .  A
N287        N288   1.322       .  A
N287       Mn289   2.201       .  S
N288        C290   1.356       .  A
Mn289      Cl313   2.539       .  S
C290       C4545   1.471       .  S
C291       C4625   1.471       .  S
N292        N293   1.332       .  A
N292        N298   1.316       .  A
N292       Mn300   2.261       .  S
N293        C301   1.367       .  A
N294        N296   1.316       .  A
N294        N295   1.309       .  A
N294       Mn312   2.149       .  S
N295        C302   1.341       .  A
N296        N297   1.329       .  A
N296       Mn300   2.248       .  S
N297        C302   1.364       .  A
N298        N299   1.308       .  A
N298       Mn312   2.146       .  S
N299        C301   1.340       .  A
Mn300      Cl313   2.562       .  S
C301       C4529   1.482       .  S
C302       C4593   1.474       .  S
N303        N304   1.317       .  A
N303        N309   1.311       .  A
N303       Mn311   2.190       .  S
N304        C314   1.353       .  A
N305        N306   1.319       .  A
N305        N307   1.311       .  A
N305       Mn312   2.181       .  S
N306        C315   1.351       .  A
N307        N308   1.319       .  A
N307       Mn311   2.191       .  S
N308        C315   1.354       .  A
N309        N310   1.320       .  A
N309       Mn312   2.182       .  S
N310        C314   1.352       .  A
Mn311      Cl313   2.537       .  S
Mn312      Cl313   2.530       .  S
C314       C4617   1.469       .  S
C315       C4577   1.470       .  S
N316        N317   1.317       .  A
N316        N322   1.313       .  A
N316       Mn345   2.183       .  S
N317        C324   1.350       .  A
N318        N320   1.311       .  A
N318        N319   1.314       .  A
N318       Mn334   2.169       .  S
N319        C325   1.348       .  A
N320        N321   1.322       .  A
N320       Mn345   2.196       .  S
N321        C325   1.356       .  A
N322        N323   1.321       .  A
N322       Mn334   2.202       .  S
N323        C324   1.356       .  A
C324       C4465   1.472       .  S
C325       C4449   1.467       .  S
N326        N332   1.313       .  A
N326        N327   1.319       .  A
N326       Mn356   2.181       .  S
N327        C335   1.352       .  A
N328        N329   1.316       .  A
N328        N330   1.312       .  A
N328       Mn334   2.180       .  S
N329        C336   1.352       .  A
N330        N331   1.321       .  A
N330       Mn356   2.195       .  S
N331        C336   1.354       .  A
N332        N333   1.317       .  A
N332       Mn334   2.187       .  S
N333        C335   1.350       .  A
Mn334      Cl358   2.541       .  S
C335       C4481   1.465       .  S
C336       C4633   1.471       .  S
N337        N338   1.314       .  A
N337        N343   1.317       .  A
N337       Mn345   2.162       .  S
N338        C346   1.344       .  A
N339        N341   1.317       .  A
N339        N340   1.333       .  A
N339       Mn357   2.268       .  S
N340        C347   1.367       .  A
N341        N342   1.313       .  A
N341       Mn345   2.168       .  S
N342        C347   1.343       .  A
N343        N344   1.330       .  A
N343       Mn357   2.265       .  S
N344        C346   1.365       .  A
Mn345      Cl358   2.533       .  S
C346       C4433   1.486       .  S
C347       C4417   1.491       .  S
N348        N349   1.311       .  A
N348        N354   1.317       .  A
N348       Mn356   2.157       .  S
N349        C359   1.342       .  A
N350        N351   1.329       .  A
N350        N352   1.317       .  A
N350       Mn357   2.258       .  S
N351        C360   1.364       .  A
N352        N353   1.316       .  A
N352       Mn356   2.177       .  S
N353        C360   1.347       .  A
N354        N355   1.331       .  A
N354       Mn357   2.264       .  S
N355        C359   1.367       .  A
Mn356      Cl358   2.534       .  S
Mn357      Cl358   2.564       .  S
C359       C4521   1.485       .  S
C360       C4497   1.489       .  S
N361        N362   1.319       .  A
N361        N367   1.311       .  A
N361       Mn390   2.176       .  S
N362        C369   1.351       .  A
N363        N365   1.312       .  A
N363        N364   1.317       .  A
N363       Mn379   2.189       .  S
N364        C370   1.354       .  A
N365        N366   1.318       .  A
N365       Mn390   2.178       .  S
N366        C370   1.351       .  A
N367        N368   1.319       .  A
N367       Mn379   2.197       .  S
N368        C369   1.354       .  A
C369       C4553   1.470       .  S
C370       C4489   1.466       .  S
N371        N377   1.313       .  A
N371        N372   1.320       .  A
N371       Mn401   2.191       .  S
N372        C380   1.353       .  A
N373        N374   1.315       .  A
N373        N375   1.314       .  A
N373       Mn379   2.177       .  S
N374        C381   1.349       .  A
N375        N376   1.321       .  A
N375       Mn401   2.202       .  S
N376        C381   1.355       .  A
N377        N378   1.319       .  A
N377       Mn379   2.193       .  S
N378        C380   1.354       .  A
Mn379      Cl403   2.543       .  S
C380       C4385   1.476       .  S
C381       C4337   1.469       .  S
N382        N383   1.309       .  A
N382        N388   1.315       .  A
N382       Mn390   2.143       .  S
N383        C391   1.339       .  A
N384        N386   1.317       .  A
N384        N385   1.331       .  A
N384       Mn402   2.266       .  S
N385        C392   1.366       .  A
N386        N387   1.312       .  A
N386       Mn390   2.157       .  S
N387        C392   1.343       .  A
N388        N389   1.334       .  A
N388       Mn402   2.267       .  S
N389        C391   1.368       .  A
Mn390      Cl403   2.530       .  S
C391       C4401   1.486       .  S
C392       C4329   1.485       .  S
N393        N394   1.315       .  A
N393        N399   1.318       .  A
N393       Mn401   2.174       .  S
N394        C404   1.345       .  A
N395        N396   1.328       .  A
N395        N397   1.318       .  A
N395       Mn402   2.249       .  S
N396        C405   1.363       .  A
N397        N398   1.313       .  A
N397       Mn401   2.172       .  S
N398        C405   1.344       .  A
N399        N400   1.329       .  A
N399       Mn402   2.255       .  S
N400        C404   1.363       .  A
Mn401      Cl403   2.531       .  S
Mn402      Cl403   2.565       .  S
C404       C4353   1.484       .  S
C405       C4377   1.480       .  S
N406        N407   1.324       .  A
N406        N412   1.311       .  A
N406       Mn435   2.201       .  S
N407        C414   1.357       .  A
N408        N410   1.311       .  A
N408        N409   1.313       .  A
N408       Mn424   2.165       .  S
N409        C415   1.347       .  A
N410        N411   1.324       .  A
N410       Mn435   2.201       .  S
N411        C415   1.357       .  A
N412        N413   1.313       .  A
N412       Mn424   2.163       .  S
N413        C414   1.347       .  A
C414       C4609   1.467       .  S
C415       C4281   1.468       .  S
N416        N422   1.311       .  A
N416        N417   1.322       .  A
N416       Mn446   2.194       .  S
N417        C425   1.356       .  A
N418        N419   1.314       .  A
N418        N420   1.311       .  A
N418       Mn424   2.166       .  S
N419        C426   1.348       .  A
N420        N421   1.324       .  A
N420       Mn446   2.204       .  S
N421        C426   1.357       .  A
N422        N423   1.313       .  A
N422       Mn424   2.163       .  S
N423        C425   1.347       .  A
Mn424      Cl448   2.533       .  S
C425       C4313   1.465       .  S
C426       C4473   1.470       .  S
N427        N428   1.313       .  A
N427        N433   1.319       .  A
N427       Mn435   2.167       .  S
N428        C436   1.343       .  A
N429        N431   1.318       .  A
N429        N430   1.331       .  A
N429       Mn447   2.264       .  S
N430        C437   1.365       .  A
N431        N432   1.314       .  A
N431       Mn435   2.172       .  S
N432        C437   1.345       .  A
N433        N434   1.333       .  A
N433       Mn447   2.277       .  S
N434        C436   1.368       .  A
Mn435      Cl448   2.547       .  S
C436       C4257   1.492       .  S
C437       C4233   1.487       .  S
N438        N439   1.313       .  A
N438        N444   1.318       .  A
N438       Mn446   2.165       .  S
N439        C449   1.343       .  A
N440        N441   1.331       .  A
N440        N442   1.318       .  A
N440       Mn447   2.272       .  S
N441        C450   1.367       .  A
N442        N443   1.315       .  A
N442       Mn446   2.171       .  S
N443        C450   1.344       .  A
N444        N445   1.331       .  A
N444       Mn447   2.269       .  S
N445        C449   1.366       .  A
Mn446      Cl448   2.548       .  S
Mn447      Cl448   2.545       .  S
C449       C4241   1.487       .  S
C450       C4297   1.491       .  S
N451        N452   1.320       .  A
N451        N457   1.312       .  A
N451       Mn480   2.182       .  S
N452        C459   1.352       .  A
N453        N455   1.313       .  A
N453        N454   1.317       .  A
N453       Mn469   2.186       .  S
N454        C460   1.353       .  A
N455        N456   1.319       .  A
N455       Mn480   2.185       .  S
N456        C460   1.351       .  A
N457        N458   1.317       .  A
N457       Mn469   2.188       .  S
N458        C459   1.352       .  A
C459       C4457   1.467       .  S
C460       C4305   1.467       .  S
N461        N467   1.312       .  A
N461        N462   1.320       .  A
N461       Mn491   2.190       .  S
N462        C470   1.352       .  A
N463        N464   1.314       .  A
N463        N465   1.313       .  A
N463       Mn469   2.176       .  S
N464        C471   1.348       .  A
N465        N466   1.325       .  A
N465       Mn491   2.212       .  S
N466        C471   1.358       .  A
N467        N468   1.318       .  A
N467       Mn469   2.192       .  S
N468        C470   1.354       .  A
Mn469      Cl493   2.538       .  S
C470       C4193   1.474       .  S
C471       C4393   1.475       .  S
N472        N473   1.312       .  A
N472        N478   1.316       .  A
N472       Mn480   2.158       .  S
N473        C481   1.342       .  A
N474        N476   1.317       .  A
N474        N475   1.331       .  A
N474       Mn492   2.269       .  S
N475        C482   1.366       .  A
N476        N477   1.315       .  A
N476       Mn480   2.168       .  S
N477        C482   1.345       .  A
N478        N479   1.334       .  A
N478       Mn492   2.273       .  S
N479        C481   1.368       .  A
Mn480      Cl493   2.541       .  S
C481       C4209   1.489       .  S
C482       C4153   1.490       .  S
N483        N484   1.316       .  A
N483        N489   1.318       .  A
N483       Mn491   2.174       .  S
N484        C494   1.346       .  A
N485        N486   1.329       .  A
N485        N487   1.318       .  A
N485       Mn492   2.257       .  S
N486        C495   1.364       .  A
N487        N488   1.316       .  A
N487       Mn491   2.183       .  S
N488        C495   1.347       .  A
N489        N490   1.330       .  A
N489       Mn492   2.262       .  S
N490        C494   1.364       .  A
Mn491      Cl493   2.542       .  S
Mn492      Cl493   2.559       .  S
C494       C4161   1.489       .  S
C495       C4177   1.490       .  S
N496        N497   1.321       .  A
N496        N502   1.312       .  A
N496       Mn525   2.187       .  S
N497        C504   1.353       .  A
N498        N500   1.312       .  A
N498        N499   1.311       .  A
N498       Mn514   2.163       .  S
N499        C505   1.347       .  A
N500        N501   1.325       .  A
N500       Mn525   2.214       .  S
N501        C505   1.359       .  A
N502        N503   1.316       .  A
N502       Mn514   2.185       .  S
N503        C504   1.351       .  A
C504       C4345   1.470       .  S
C505       C4201   1.472       .  S
N506        N512   1.311       .  A
N506        N507   1.317       .  A
N506       Mn536   2.168       .  S
N507        C515   1.349       .  A
N508        N509   1.315       .  A
N508        N510   1.311       .  A
N508       Mn514   2.170       .  S
N509        C516   1.349       .  A
N510        N511   1.322       .  A
N510       Mn536   2.199       .  S
N511        C516   1.356       .  A
N512        N513   1.320       .  A
N512       Mn514   2.197       .  S
N513        C515   1.355       .  A
Mn514      Cl538   2.534       .  S
C515       C4273   1.469       .  S
C516       C4585   1.469       .  S
N517        N518   1.311       .  A
N517        N523   1.317       .  A
N517       Mn525   2.155       .  S
N518        C526   1.341       .  A
N519        N521   1.319       .  A
N519        N520   1.328       .  A
N519       Mn537   2.248       .  S
N520        C527   1.362       .  A
N521        N522   1.316       .  A
N521       Mn525   2.186       .  S
N522        C527   1.347       .  A
N523        N524   1.334       .  A
N523       Mn537   2.282       .  S
N524        C526   1.369       .  A
Mn525      Cl538   2.539       .  S
C526       C4129   1.491       .  S
C527       C4081   1.486       .  S
N528        N529   1.309       .  A
N528        N534   1.316       .  A
N528       Mn536   2.144       .  S
N529        C539   1.340       .  A
N530        N531   1.328       .  A
N530        N532   1.317       .  A
N530       Mn537   2.250       .  S
N531        C540   1.364       .  A
N532        N533   1.314       .  A
N532       Mn536   2.169       .  S
N533        C540   1.344       .  A
N534        N535   1.334       .  A
N534       Mn537   2.275       .  S
N535        C539   1.369       .  A
Mn536      Cl538   2.530       .  S
Mn537      Cl538   2.566       .  S
C539       C4097   1.486       .  S
C540       C4113   1.482       .  S
N541        N542   1.312       .  A
N541        N547   1.312       .  A
N541       Mn570   2.159       .  S
N542        C549   1.346       .  A
N543        N545   1.311       .  A
N543        N544   1.324       .  A
N543       Mn559   2.204       .  S
N544        C550   1.357       .  A
N545        N546   1.313       .  A
N545       Mn570   2.163       .  S
N546        C550   1.346       .  A
N547        N548   1.322       .  A
N547       Mn559   2.200       .  S
N548        C549   1.356       .  A
C549       C4049   1.462       .  S
C550       C4025   1.469       .  S
N551        N557   1.319       .  A
N551        N552   1.330       .  A
N551       Mn581   2.262       .  S
N552        C560   1.364       .  A
N553        N554   1.315       .  A
N553        N555   1.318       .  A
N553       Mn559   2.173       .  S
N554        C561   1.344       .  A
N555        N556   1.331       .  A
N555       Mn581   2.269       .  S
N556        C561   1.366       .  A
N557        N558   1.314       .  A
N557       Mn559   2.175       .  S
N558        C560   1.346       .  A
Mn559      Cl583   2.544       .  S
C560       C4033   1.487       .  S
C561       C4073   1.491       .  S
N562        N563   1.314       .  A
N562        N568   1.311       .  A
N562       Mn570   2.165       .  S
N563        C571   1.348       .  A
N564        N566   1.311       .  A
N564        N565   1.323       .  A
N564       Mn582   2.204       .  S
N565        C572   1.356       .  A
N566        N567   1.316       .  A
N566       Mn570   2.173       .  S
N567        C572   1.350       .  A
N568        N569   1.322       .  A
N568       Mn582   2.199       .  S
N569        C571   1.356       .  A
Mn570      Cl583   2.539       .  S
C571       C4001   1.468       .  S
C572       C3993   1.474       .  S
N573        N574   1.330       .  A
N573        N579   1.319       .  A
N573       Mn581   2.271       .  S
N574        C584   1.366       .  A
N575        N576   1.313       .  A
N575        N577   1.318       .  A
N575       Mn582   2.169       .  S
N576        C585   1.344       .  A
N577        N578   1.330       .  A
N577       Mn581   2.260       .  S
N578        C585   1.364       .  A
N579        N580   1.314       .  A
N579       Mn582   2.170       .  S
N580        C584   1.344       .  A
Mn581      Cl583   2.550       .  S
Mn582      Cl583   2.543       .  S
C584       C3953   1.487       .  S
C585       C3969   1.486       .  S
N586        N587   1.319       .  A
N586        N592   1.312       .  A
N586       Mn615   2.181       .  S
N587        C594   1.351       .  A
N588        N590   1.313       .  A
N588        N589   1.317       .  A
N588       Mn604   2.187       .  S
N589        C595   1.352       .  A
N590        N591   1.322       .  A
N590       Mn615   2.196       .  S
N591        C595   1.355       .  A
N592        N593   1.319       .  A
N592       Mn604   2.197       .  S
N593        C594   1.355       .  A
C594       C3921   1.473       .  S
C595       C3873   1.473       .  S
N596        N602   1.312       .  A
N596        N597   1.318       .  A
N596       Mn626   2.170       .  S
N597        C605   1.350       .  A
N598        N599   1.317       .  A
N598        N600   1.312       .  A
N598       Mn604   2.190       .  S
N599        C606   1.354       .  A
N600        N601   1.318       .  A
N600       Mn626   2.179       .  S
N601        C606   1.350       .  A
N602        N603   1.317       .  A
N602       Mn604   2.190       .  S
N603        C605   1.352       .  A
Mn604      Cl628   2.544       .  S
C605       C3857   1.463       .  S
C606       C4017   1.467       .  S
N607        N608   1.311       .  A
N607        N613   1.317       .  A
N607       Mn615   2.158       .  S
N608        C616   1.342       .  A
N609        N611   1.317       .  A
N609        N610   1.331       .  A
N609       Mn627   2.260       .  S
N610        C617   1.366       .  A
N611        N612   1.311       .  A
N611       Mn615   2.160       .  S
N612        C617   1.342       .  A
N613        N614   1.330       .  A
N613       Mn627   2.255       .  S
N614        C616   1.364       .  A
Mn615      Cl628   2.526       .  S
C616       C3897   1.481       .  S
C617       C3905   1.484       .  S
N618        N619   1.308       .  A
N618        N624   1.315       .  A
N618       Mn626   2.141       .  S
N619        C629   1.338       .  A
N620        N621   1.331       .  A
N620        N622   1.317       .  A
N620       Mn627   2.264       .  S
N621        C630   1.366       .  A
N622        N623   1.313       .  A
N622       Mn626   2.166       .  S
N623        C630   1.344       .  A
N624        N625   1.333       .  A
N624       Mn627   2.264       .  S
N625        C629   1.368       .  A
Mn626      Cl628   2.525       .  S
Mn627      Cl628   2.570       .  S
C629       C3937   1.480       .  S
C630       C3849   1.488       .  S
N631        N632   1.314       .  A
N631        N637   1.312       .  A
N631       Mn660   2.157       .  S
N632        C639   1.346       .  A
N633        N635   1.311       .  A
N633        N634   1.313       .  A
N633       Mn649   2.161       .  S
N634        C640   1.347       .  A
N635        N636   1.322       .  A
N635       Mn660   2.194       .  S
N636        C640   1.355       .  A
N637        N638   1.321       .  A
N637       Mn649   2.205       .  S
N638        C639   1.357       .  A
C639       C4057   1.464       .  S
C640       C3865   1.463       .  S
N641        N647   1.312       .  A
N641        N642   1.319       .  A
N641       Mn671   2.188       .  S
N642        C650   1.352       .  A
N643        N644   1.312       .  A
N643        N645   1.313       .  A
N643       Mn649   2.162       .  S
N644        C651   1.346       .  A
N645        N646   1.327       .  A
N645       Mn671   2.223       .  S
N646        C651   1.360       .  A
N647        N648   1.319       .  A
N647       Mn649   2.193       .  S
N648        C650   1.353       .  A
Mn649      Cl673   2.537       .  S
C650       C3753   1.472       .  S
C651       C3817   1.476       .  S
N652        N653   1.309       .  A
N652        N658   1.315       .  A
N652       Mn660   2.140       .  S
N653        C661   1.340       .  A
N654        N656   1.317       .  A
N654        N655   1.331       .  A
N654       Mn672   2.261       .  S
N655        C662   1.366       .  A
N656        N657   1.314       .  A
N656       Mn660   2.171       .  S
N657        C662   1.345       .  A
N658        N659   1.332       .  A
N658       Mn672   2.266       .  S
N659        C661   1.367       .  A
Mn660      Cl673   2.530       .  S
C661       C3777   1.482       .  S
C662       C3825   1.491       .  S
N663        N664   1.314       .  A
N663        N669   1.319       .  A
N663       Mn671   2.171       .  S
N664        C674   1.344       .  A
N665        N666   1.328       .  A
N665        N667   1.318       .  A
N665       Mn672   2.246       .  S
N666        C675   1.362       .  A
N667        N668   1.316       .  A
N667       Mn671   2.189       .  S
N668        C675   1.348       .  A
N669        N670   1.330       .  A
N669       Mn672   2.267       .  S
N670        C674   1.365       .  A
Mn671      Cl673   2.539       .  S
Mn672      Cl673   2.565       .  S
C674       C3793   1.488       .  S
C675       C3761   1.488       .  S
N676        N677   1.319       .  A
N676        N682   1.311       .  A
N676       Mn705   2.179       .  S
N677        C684   1.352       .  A
N678        N680   1.310       .  A
N678        N679   1.313       .  A
N678       Mn694   2.162       .  S
N679        C685   1.347       .  A
N680        N681   1.323       .  A
N680       Mn705   2.197       .  S
N681        C685   1.356       .  A
N682        N683   1.317       .  A
N682       Mn694   2.188       .  S
N683        C684   1.353       .  A
C684       C4009   1.468       .  S
C685       C3705   1.468       .  S
N686        N692   1.312       .  A
N686        N687   1.321       .  A
N686       Mn716   2.190       .  S
N687        C695   1.354       .  A
N688        N689   1.312       .  A
N688        N690   1.312       .  A
N688       Mn694   2.159       .  S
N689        C696   1.346       .  A
N690        N691   1.326       .  A
N690       Mn716   2.221       .  S
N691        C696   1.360       .  A
N692        N693   1.315       .  A
N692       Mn694   2.177       .  S
N693        C695   1.349       .  A
Mn694      Cl718   2.529       .  S
C695       C3737   1.467       .  S
C696       C3929   1.473       .  S
N697        N698   1.310       .  A
N697        N703   1.317       .  A
N697       Mn705   2.147       .  S
N698        C706   1.340       .  A
N699        N701   1.317       .  A
N699        N700   1.333       .  A
N699       Mn717   2.272       .  S
N700        C707   1.368       .  A
N701        N702   1.312       .  A
N701       Mn705   2.160       .  S
N702        C707   1.342       .  A
N703        N704   1.331       .  A
N703       Mn717   2.270       .  S
N704        C706   1.367       .  A
Mn705      Cl718   2.539       .  S
C706       C3681   1.482       .  S
C707       C3657   1.490       .  S
N708        N709   1.312       .  A
N708        N714   1.319       .  A
N708       Mn716   2.165       .  S
N709        C719   1.342       .  A
N710        N711   1.329       .  A
N710        N712   1.319       .  A
N710       Mn717   2.261       .  S
N711        C720   1.363       .  A
N712        N713   1.319       .  A
N712       Mn716   2.193       .  S
N713        C720   1.349       .  A
N714        N715   1.333       .  A
N714       Mn717   2.276       .  S
N715        C719   1.368       .  A
Mn716      Cl718   2.547       .  S
Mn717      Cl718   2.562       .  S
C719       C3673   1.488       .  S
C720       C3721   1.493       .  S
N721        N722   1.319       .  A
N721        N727   1.314       .  A
N721       Mn750   2.184       .  S
N722        C729   1.351       .  A
N723        N725   1.313       .  A
N723        N724   1.321       .  A
N723       Mn739   2.196       .  S
N724        C730   1.354       .  A
N725        N726   1.320       .  A
N725       Mn750   2.195       .  S
N726        C730   1.353       .  A
N727        N728   1.319       .  A
N727       Mn739   2.204       .  S
N728        C729   1.356       .  A
C729       C3809   1.474       .  S
C730       C3641   1.478       .  S
N731        N737   1.314       .  A
N731        N732   1.318       .  A
N731       Mn761   2.179       .  S
N732        C740   1.351       .  A
N733        N734   1.319       .  A
N733        N735   1.313       .  A
N733       Mn739   2.194       .  S
N734        C741   1.353       .  A
N735        N736   1.321       .  A
N735       Mn761   2.196       .  S
N736        C741   1.353       .  A
N737        N738   1.318       .  A
N737       Mn739   2.200       .  S
N738        C740   1.354       .  A
Mn739      Cl763   2.548       .  S
C740       C3697   1.468       .  S
C741       C3985   1.475       .  S
N742        N743   1.311       .  A
N742        N748   1.318       .  A
N742       Mn750   2.164       .  S
N743        C751   1.343       .  A
N744        N746   1.316       .  A
N744        N745   1.328       .  A
N744       Mn762   2.239       .  S
N745        C752   1.362       .  A
N746        N747   1.312       .  A
N746       Mn750   2.166       .  S
N747        C752   1.344       .  A
N748        N749   1.331       .  A
N748       Mn762   2.266       .  S
N749        C751   1.366       .  A
Mn750      Cl763   2.527       .  S
C751       C3617   1.486       .  S
C752       C3593   1.478       .  S
N753        N754   1.311       .  A
N753        N759   1.317       .  A
N753       Mn761   2.159       .  S
N754        C764   1.342       .  A
N755        N756   1.330       .  A
N755        N757   1.316       .  A
N755       Mn762   2.254       .  S
N756        C765   1.364       .  A
N757        N758   1.316       .  A
N757       Mn761   2.179       .  S
N758        C765   1.347       .  A
N759        N760   1.335       .  A
N759       Mn762   2.276       .  S
N760        C764   1.369       .  A
Mn761      Cl763   2.536       .  S
Mn762      Cl763   2.569       .  S
C764       C3577   1.492       .  S
C765       C3609   1.489       .  S
N766        N767   1.324       .  A
N766        N772   1.310       .  A
N766       Mn795   2.198       .  S
N767        C774   1.357       .  A
N768        N770   1.311       .  A
N768        N769   1.314       .  A
N768       Mn784   2.173       .  S
N769        C775   1.350       .  A
N770        N771   1.321       .  A
N770       Mn795   2.190       .  S
N771        C775   1.354       .  A
N772        N773   1.314       .  A
N772       Mn784   2.169       .  S
N773        C774   1.348       .  A
C774       C3881   1.472       .  S
C775       C3729   1.466       .  S
N776        N782   1.311       .  A
N776        N777   1.323       .  A
N776       Mn806   2.208       .  S
N777        C785   1.357       .  A
N778        N779   1.315       .  A
N778        N780   1.312       .  A
N778       Mn784   2.168       .  S
N779        C786   1.348       .  A
N780        N781   1.322       .  A
N780       Mn806   2.205       .  S
N781        C786   1.357       .  A
N782        N783   1.316       .  A
N782       Mn784   2.173       .  S
N783        C785   1.350       .  A
Mn784      Cl808   2.538       .  S
C785       C3633   1.477       .  S
C786       C3745   1.471       .  S
N787        N788   1.313       .  A
N787        N793   1.318       .  A
N787       Mn795   2.163       .  S
N788        C796   1.343       .  A
N789        N791   1.318       .  A
N789        N790   1.334       .  A
N789       Mn807   2.279       .  S
N790        C797   1.368       .  A
N791        N792   1.311       .  A
N791       Mn795   2.160       .  S
N792        C797   1.342       .  A
N793        N794   1.333       .  A
N793       Mn807   2.274       .  S
N794        C796   1.368       .  A
Mn795      Cl808   2.547       .  S
C796       C3537   1.491       .  S
C797       C3505   1.491       .  S
N798        N799   1.316       .  A
N798        N804   1.318       .  A
N798       Mn806   2.181       .  S
N799        C809   1.346       .  A
N800        N801   1.330       .  A
N800        N802   1.320       .  A
N800       Mn807   2.274       .  S
N801        C810   1.366       .  A
N802        N803   1.317       .  A
N802       Mn806   2.184       .  S
N803        C810   1.346       .  A
N804        N805   1.328       .  A
N804       Mn807   2.253       .  S
N805        C809   1.363       .  A
Mn806      Cl808   2.542       .  S
Mn807      Cl808   2.551       .  S
C809       C3521   1.487       .  S
C810       C3553   1.493       .  S
N811        N812   1.316       .  A
N811        N817   1.311       .  A
N811       Mn840   2.186       .  S
N812        C819   1.352       .  A
N813        N815   1.311       .  A
N813        N814   1.319       .  A
N813       Mn829   2.180       .  S
N814        C820   1.351       .  A
N815        N816   1.318       .  A
N815       Mn840   2.189       .  S
N816        C820   1.353       .  A
N817        N818   1.319       .  A
N817       Mn829   2.172       .  S
N818        C819   1.350       .  A
C819       C3489   1.463       .  S
C820       C3457   1.466       .  S
N821        N827   1.315       .  A
N821        N822   1.336       .  A
N821       Mn851   2.280       .  S
N822        C830   1.370       .  A
N823        N824   1.308       .  A
N823        N825   1.316       .  A
N823       Mn829   2.145       .  S
N824        C831   1.340       .  A
N825        N826   1.332       .  A
N825       Mn851   2.260       .  S
N826        C831   1.367       .  A
N827        N828   1.307       .  A
N827       Mn829   2.137       .  S
N828        C830   1.338       .  A
Mn829      Cl853   2.536       .  S
C830       C3425   1.490       .  S
C831       C3689   1.482       .  S
N832        N833   1.316       .  A
N832        N838   1.313       .  A
N832       Mn840   2.174       .  S
N833        C841   1.350       .  A
N834        N836   1.314       .  A
N834        N835   1.324       .  A
N834       Mn852   2.213       .  S
N835        C842   1.357       .  A
N836        N837   1.315       .  A
N836       Mn840   2.177       .  S
N837        C842   1.349       .  A
N838        N839   1.318       .  A
N838       Mn852   2.192       .  S
N839        C841   1.353       .  A
Mn840      Cl853   2.535       .  S
C841       C3441   1.464       .  S
C842       C3481   1.475       .  S
N843        N844   1.328       .  A
N843        N849   1.318       .  A
N843       Mn851   2.260       .  S
N844        C854   1.363       .  A
N845        N846   1.319       .  A
N845        N847   1.318       .  A
N845       Mn852   2.197       .  S
N846        C855   1.350       .  A
N847        N848   1.326       .  A
N847       Mn851   2.241       .  S
N848        C855   1.361       .  A
N849        N850   1.318       .  A
N849       Mn852   2.183       .  S
N850        C854   1.348       .  A
Mn851      Cl853   2.560       .  S
Mn852      Cl853   2.539       .  S
C854       C3601   1.491       .  S
C855       C3409   1.488       .  S
N856        N857   1.316       .  A
N856        N862   1.313       .  A
N856       Mn885   2.182       .  S
N857        C864   1.350       .  A
N858        N860   1.313       .  A
N858        N859   1.323       .  A
N858       Mn874   2.205       .  S
N859        C865   1.356       .  A
N860        N861   1.314       .  A
N860       Mn885   2.173       .  S
N861        C865   1.349       .  A
N862        N863   1.322       .  A
N862       Mn874   2.195       .  S
N863        C864   1.355       .  A
C864       C3401   1.470       .  S
C865       C3377   1.472       .  S
N866        N872   1.317       .  A
N866        N867   1.329       .  A
N866       Mn896   2.253       .  S
N867        C875   1.364       .  A
N868        N869   1.316       .  A
N868        N870   1.319       .  A
N868       Mn874   2.183       .  S
N869        C876   1.347       .  A
N870        N871   1.329       .  A
N870       Mn896   2.258       .  S
N871        C876   1.364       .  A
N872        N873   1.314       .  A
N872       Mn874   2.168       .  S
N873        C875   1.344       .  A
Mn874      Cl898   2.539       .  S
C875       C3337   1.482       .  S
C876       C3801   1.488       .  S
N877        N878   1.319       .  A
N877        N883   1.311       .  A
N877       Mn885   2.193       .  S
N878        C886   1.354       .  A
N879        N881   1.311       .  A
N879        N880   1.320       .  A
N879       Mn897   2.184       .  S
N880        C887   1.353       .  A
N881        N882   1.315       .  A
N881       Mn885   2.180       .  S
N882        C887   1.351       .  A
N883        N884   1.318       .  A
N883       Mn897   2.177       .  S
N884        C886   1.350       .  A
Mn885      Cl898   2.538       .  S
C886       C3345   1.468       .  S
C887       C3361   1.465       .  S
N888        N889   1.331       .  A
N888        N894   1.316       .  A
N888       Mn896   2.263       .  S
N889        C899   1.366       .  A
N890        N891   1.311       .  A
N890        N892   1.316       .  A
N890       Mn897   2.157       .  S
N891        C900   1.342       .  A
N892        N893   1.332       .  A
N892       Mn896   2.262       .  S
N893        C900   1.366       .  A
N894        N895   1.310       .  A
N894       Mn897   2.149       .  S
N895        C899   1.341       .  A
Mn896      Cl898   2.564       .  S
Mn897      Cl898   2.531       .  S
C899       C3585   1.483       .  S
C900       C3313   1.484       .  S
N901        N902   1.330       .  A
N901        N907   1.317       .  A
N901       Mn930   2.268       .  S
N902        C909   1.365       .  A
N903        N905   1.317       .  A
N903        N904   1.315       .  A
N903       Mn919   2.173       .  S
N904        C910   1.345       .  A
N905        N906   1.330       .  A
N905       Mn930   2.259       .  S
N906        C910   1.365       .  A
N907        N908   1.314       .  A
N907       Mn919   2.160       .  S
N908        C909   1.343       .  A
C909       C5017   1.485       .  S
C910       C3977   1.488       .  S
N911        N917   1.313       .  A
N911        N912   1.320       .  A
N911       Mn941   2.201       .  S
N912        C920   1.356       .  A
N913        N914   1.324       .  A
N913        N915   1.312       .  A
N913       Mn919   2.201       .  S
N914        C921   1.357       .  A
N915        N916   1.314       .  A
N915       Mn941   2.174       .  S
N916        C921   1.349       .  A
N917        N918   1.316       .  A
N917       Mn919   2.175       .  S
N918        C920   1.349       .  A
Mn919      Cl943   2.537       .  S
C920       C3297   1.470       .  S
C921       C3273   1.473       .  S
N922        N923   1.333       .  A
N922        N928   1.319       .  A
N922       Mn930   2.277       .  S
N923        C931   1.367       .  A
N924        N926   1.316       .  A
N924        N925   1.311       .  A
N924       Mn942   2.164       .  S
N925        C932   1.343       .  A
N926        N927   1.331       .  A
N926       Mn930   2.251       .  S
N927        C932   1.364       .  A
N928        N929   1.312       .  A
N928       Mn942   2.161       .  S
N929        C931   1.342       .  A
Mn930      Cl943   2.556       .  S
C931       C3649   1.488       .  S
C932       C4737   1.482       .  S
N933        N934   1.319       .  A
N933        N939   1.312       .  A
N933       Mn941   2.199       .  S
N934        C944   1.355       .  A
N935        N936   1.323       .  A
N935        N937   1.312       .  A
N935       Mn942   2.198       .  S
N936        C945   1.355       .  A
N937        N938   1.316       .  A
N937       Mn941   2.183       .  S
N938        C945   1.351       .  A
N939        N940   1.319       .  A
N939       Mn942   2.182       .  S
N940        C944   1.351       .  A
Mn941      Cl943   2.546       .  S
Mn942      Cl943   2.537       .  S
C944       C3289   1.471       .  S
C945       C3249   1.475       .  S
N946        N947   1.331       .  A
N946        N952   1.316       .  A
N946       Mn975   2.255       .  S
N947        C954   1.365       .  A
N948        N950   1.316       .  A
N948        N949   1.310       .  A
N948       Mn964   2.149       .  S
N949        C955   1.340       .  A
N950        N951   1.334       .  A
N950       Mn975   2.275       .  S
N951        C955   1.369       .  A
N952        N953   1.311       .  A
N952       Mn964   2.158       .  S
N953        C954   1.342       .  A
C954       C3913   1.482       .  S
C955       C3177   1.488       .  S
N956        N962   1.312       .  A
N956        N957   1.317       .  A
N956       Mn986   2.187       .  S
N957        C965   1.352       .  A
N958        N959   1.319       .  A
N958        N960   1.312       .  A
N958       Mn964   2.175       .  S
N959        C966   1.351       .  A
N960        N961   1.318       .  A
N960       Mn986   2.194       .  S
N961        C966   1.354       .  A
N962        N963   1.319       .  A
N962       Mn964   2.181       .  S
N963        C965   1.351       .  A
Mn964      Cl988   2.531       .  S
C965       C3225   1.467       .  S
C966       C3233   1.469       .  S
N967        N968   1.330       .  A
N967        N973   1.318       .  A
N967       Mn975   2.249       .  S
N968        C976   1.364       .  A
N969        N971   1.318       .  A
N969        N970   1.313       .  A
N969       Mn987   2.168       .  S
N970        C977   1.344       .  A
N971        N972   1.331       .  A
N971       Mn975   2.265       .  S
N972        C977   1.366       .  A
N973        N974   1.312       .  A
N973       Mn987   2.173       .  S
N974        C976   1.344       .  A
Mn975      Cl988   2.567       .  S
C976       C3185   1.483       .  S
C977       C3665   1.488       .  S
N978        N979   1.315       .  A
N978        N984   1.313       .  A
N978       Mn986   2.181       .  S
N979        C989   1.350       .  A
N980        N981   1.320       .  A
N980        N982   1.313       .  A
N980       Mn987   2.191       .  S
N981        C990   1.353       .  A
N982        N983   1.318       .  A
N982       Mn986   2.194       .  S
N983        C990   1.354       .  A
N984        N985   1.324       .  A
N984       Mn987   2.204       .  S
N985        C989   1.357       .  A
Mn986      Cl988   2.539       .  S
Mn987      Cl988   2.535       .  S
C989       C3257   1.474       .  S
C990       C3209   1.475       .  S
N991        N992   1.315       .  A
N991        N997   1.311       .  A
N991      Mn1020   2.181       .  S
N992        C999   1.351       .  A
N993        N995   1.312       .  A
N993        N994   1.327       .  A
N993      Mn1009   2.213       .  S
N994       C1000   1.359       .  A
N995        N996   1.313       .  A
N995      Mn1020   2.173       .  S
N996       C1000   1.347       .  A
N997        N998   1.322       .  A
N997      Mn1009   2.189       .  S
N998        C999   1.353       .  A
C999       C3145   1.468       .  S
C1000      C3153   1.475       .  S
N1001      N1007   1.317       .  A
N1001      N1002   1.335       .  A
N1001     Mn1031   2.283       .  S
N1002      C1010   1.369       .  A
N1003      N1004   1.311       .  A
N1003      N1005   1.318       .  A
N1003     Mn1009   2.168       .  S
N1004      C1011   1.342       .  A
N1005      N1006   1.332       .  A
N1005     Mn1031   2.264       .  S
N1006      C1011   1.366       .  A
N1007      N1008   1.310       .  A
N1007     Mn1009   2.153       .  S
N1008      C1010   1.341       .  A
Mn1009    Cl1033   2.547       .  S
C1010      C3961   1.492       .  S
C1011      C4441   1.487       .  S
N1012      N1013   1.315       .  A
N1012      N1018   1.312       .  A
N1012     Mn1020   2.175       .  S
N1013      C1021   1.350       .  A
N1014      N1016   1.313       .  A
N1014      N1015   1.321       .  A
N1014     Mn1032   2.200       .  S
N1015      C1022   1.355       .  A
N1016      N1017   1.315       .  A
N1016     Mn1020   2.174       .  S
N1017      C1022   1.349       .  A
N1018      N1019   1.319       .  A
N1018     Mn1032   2.184       .  S
N1019      C1021   1.353       .  A
Mn1020    Cl1033   2.528       .  S
C1021      C3369   1.464       .  S
C1022      C3121   1.470       .  S
N1023      N1024   1.334       .  A
N1023      N1029   1.317       .  A
N1023     Mn1031   2.278       .  S
N1024      C1034   1.368       .  A
N1025      N1026   1.317       .  A
N1025      N1027   1.318       .  A
N1025     Mn1032   2.181       .  S
N1026      C1035   1.346       .  A
N1027      N1028   1.328       .  A
N1027     Mn1031   2.257       .  S
N1028      C1035   1.364       .  A
N1029      N1030   1.313       .  A
N1029     Mn1032   2.166       .  S
N1030      C1034   1.343       .  A
Mn1031    Cl1033   2.561       .  S
Mn1032    Cl1033   2.541       .  S
C1034      C4145   1.494       .  S
C1035      C3569   1.488       .  S
N1036      N1037   1.329       .  A
N1036      N1042   1.318       .  A
N1036     Mn1065   2.258       .  S
N1037      C1044   1.365       .  A
N1038      N1040   1.317       .  A
N1038      N1039   1.309       .  A
N1038     Mn1054   2.145       .  S
N1039      C1045   1.340       .  A
N1040      N1041   1.331       .  A
N1040     Mn1065   2.267       .  S
N1041      C1045   1.366       .  A
N1042      N1043   1.312       .  A
N1042     Mn1054   2.163       .  S
N1043      C1044   1.342       .  A
C1044      C4537   1.481       .  S
C1045      C3889   1.481       .  S
N1046      N1052   1.311       .  A
N1046      N1047   1.313       .  A
N1046     Mn1076   2.165       .  S
N1047      C1055   1.347       .  A
N1048      N1049   1.318       .  A
N1048      N1050   1.310       .  A
N1048     Mn1054   2.172       .  S
N1049      C1056   1.350       .  A
N1050      N1051   1.319       .  A
N1050     Mn1076   2.192       .  S
N1051      C1056   1.355       .  A
N1052      N1053   1.323       .  A
N1052     Mn1054   2.199       .  S
N1053      C1055   1.357       .  A
Mn1054    Cl1078   2.533       .  S
C1055      C3113   1.468       .  S
C1056      C3073   1.468       .  S
N1057      N1058   1.327       .  A
N1057      N1063   1.318       .  A
N1057     Mn1065   2.254       .  S
N1058      C1066   1.363       .  A
N1059      N1061   1.317       .  A
N1059      N1060   1.310       .  A
N1059     Mn1077   2.146       .  S
N1060      C1067   1.340       .  A
N1061      N1062   1.333       .  A
N1061     Mn1065   2.274       .  S
N1062      C1067   1.368       .  A
N1063      N1064   1.317       .  A
N1063     Mn1077   2.180       .  S
N1064      C1066   1.346       .  A
Mn1065    Cl1078   2.552       .  S
C1066      C3513   1.485       .  S
C1067      C4105   1.483       .  S
N1068      N1069   1.313       .  A
N1068      N1074   1.312       .  A
N1068     Mn1076   2.165       .  S
N1069      C1079   1.348       .  A
N1070      N1071   1.317       .  A
N1070      N1072   1.311       .  A
N1070     Mn1077   2.168       .  S
N1071      C1080   1.349       .  A
N1072      N1073   1.317       .  A
N1072     Mn1076   2.183       .  S
N1073      C1080   1.351       .  A
N1074      N1075   1.322       .  A
N1074     Mn1077   2.201       .  S
N1075      C1079   1.356       .  A
Mn1076    Cl1078   2.542       .  S
Mn1077    Cl1078   2.534       .  S
C1079      C3089   1.467       .  S
C1080      C3057   1.461       .  S
N1081      N1082   1.319       .  A
N1081      N1087   1.313       .  A
N1081     Mn1110   2.192       .  S
N1082      C1089   1.355       .  A
N1083      N1085   1.312       .  A
N1083      N1084   1.323       .  A
N1083     Mn1099   2.192       .  S
N1084      C1090   1.355       .  A
N1085      N1086   1.315       .  A
N1085     Mn1110   2.183       .  S
N1086      C1090   1.350       .  A
N1087      N1088   1.319       .  A
N1087     Mn1099   2.191       .  S
N1088      C1089   1.352       .  A
C1089      C3009   1.472       .  S
C1090      C3049   1.472       .  S
N1091      N1097   1.318       .  A
N1091      N1092   1.329       .  A
N1091     Mn1121   2.267       .  S
N1092      C1100   1.365       .  A
N1093      N1094   1.308       .  A
N1093      N1095   1.317       .  A
N1093     Mn1099   2.155       .  S
N1094      C1101   1.340       .  A
N1095      N1096   1.334       .  A
N1095     Mn1121   2.266       .  S
N1096      C1101   1.368       .  A
N1097      N1098   1.317       .  A
N1097     Mn1099   2.175       .  S
N1098      C1100   1.347       .  A
Mn1099    Cl1123   2.535       .  S
C1100      C4425   1.491       .  S
C1101      C5001   1.487       .  S
N1102      N1103   1.315       .  A
N1102      N1108   1.312       .  A
N1102     Mn1110   2.175       .  S
N1103      C1111   1.348       .  A
N1104      N1106   1.313       .  A
N1104      N1105   1.320       .  A
N1104     Mn1122   2.187       .  S
N1105      C1112   1.351       .  A
N1106      N1107   1.318       .  A
N1106     Mn1110   2.194       .  S
N1107      C1112   1.354       .  A
N1108      N1109   1.321       .  A
N1108     Mn1122   2.191       .  S
N1109      C1111   1.354       .  A
Mn1110    Cl1123   2.540       .  S
C1111      C3025   1.465       .  S
C1112      C2993   1.472       .  S
N1113      N1114   1.333       .  A
N1113      N1119   1.318       .  A
N1113     Mn1121   2.278       .  S
N1114      C1124   1.369       .  A
N1115      N1116   1.314       .  A
N1115      N1117   1.317       .  A
N1115     Mn1122   2.170       .  S
N1116      C1125   1.345       .  A
N1117      N1118   1.330       .  A
N1117     Mn1121   2.257       .  S
N1118      C1125   1.364       .  A
N1119      N1120   1.313       .  A
N1119     Mn1122   2.165       .  S
N1120      C1124   1.342       .  A
Mn1121    Cl1123   2.565       .  S
Mn1122    Cl1123   2.536       .  S
C1124      C4801   1.492       .  S
C1125      C4249   1.487       .  S
N1126      N1127   1.332       .  A
N1126      N1132   1.317       .  A
N1126     Mn1155   2.267       .  S
N1127      C1134   1.366       .  A
N1128      N1130   1.320       .  A
N1128      N1129   1.316       .  A
N1128     Mn1144   2.188       .  S
N1129      C1135   1.347       .  A
N1130      N1131   1.329       .  A
N1130     Mn1155   2.257       .  S
N1131      C1135   1.364       .  A
N1132      N1133   1.310       .  A
N1132     Mn1144   2.154       .  S
N1133      C1134   1.341       .  A
C1134      C4369   1.485       .  S
C1135      C2961   1.489       .  S
N1136      N1142   1.311       .  A
N1136      N1137   1.318       .  A
N1136     Mn1166   2.188       .  S
N1137      C1145   1.353       .  A
N1138      N1139   1.324       .  A
N1138      N1140   1.312       .  A
N1138     Mn1144   2.213       .  S
N1139      C1146   1.359       .  A
N1140      N1141   1.313       .  A
N1140     Mn1166   2.160       .  S
N1141      C1146   1.346       .  A
N1142      N1143   1.319       .  A
N1142     Mn1144   2.177       .  S
N1143      C1145   1.351       .  A
Mn1144    Cl1168   2.536       .  S
C1145      C2945   1.469       .  S
C1146      C2985   1.468       .  S
N1147      N1148   1.335       .  A
N1147      N1153   1.316       .  A
N1147     Mn1155   2.275       .  S
N1148      C1156   1.369       .  A
N1149      N1151   1.319       .  A
N1149      N1150   1.316       .  A
N1149     Mn1167   2.187       .  S
N1150      C1157   1.347       .  A
N1151      N1152   1.329       .  A
N1151     Mn1155   2.259       .  S
N1152      C1157   1.364       .  A
N1153      N1154   1.309       .  A
N1153     Mn1167   2.149       .  S
N1154      C1156   1.340       .  A
Mn1155    Cl1168   2.557       .  S
C1156      C2937   1.490       .  S
C1157      C4169   1.490       .  S
N1158      N1159   1.316       .  A
N1158      N1164   1.310       .  A
N1158     Mn1166   2.182       .  S
N1159      C1169   1.351       .  A
N1160      N1161   1.322       .  A
N1160      N1162   1.312       .  A
N1160     Mn1167   2.208       .  S
N1161      C1170   1.357       .  A
N1162      N1163   1.314       .  A
N1162     Mn1166   2.163       .  S
N1163      C1170   1.348       .  A
N1164      N1165   1.320       .  A
N1164     Mn1167   2.178       .  S
N1165      C1169   1.353       .  A
Mn1166    Cl1168   2.540       .  S
Mn1167    Cl1168   2.537       .  S
C1169      C3129   1.468       .  S
C1170      C3353   1.467       .  S
N1171      N1172   1.317       .  A
N1171      N1177   1.312       .  A
N1171     Mn1200   2.178       .  S
N1172      C1179   1.352       .  A
N1173      N1175   1.311       .  A
N1173      N1174   1.319       .  A
N1173     Mn1189   2.172       .  S
N1174      C1180   1.351       .  A
N1175      N1176   1.316       .  A
N1175     Mn1200   2.183       .  S
N1176      C1180   1.351       .  A
N1177      N1178   1.321       .  A
N1177     Mn1189   2.202       .  S
N1178      C1179   1.355       .  A
C1179      C2913   1.474       .  S
C1180      C3449   1.462       .  S
N1181      N1187   1.318       .  A
N1181      N1182   1.329       .  A
N1181     Mn1211   2.255       .  S
N1182      C1190   1.364       .  A
N1183      N1184   1.306       .  A
N1183      N1185   1.316       .  A
N1183     Mn1189   2.133       .  S
N1184      C1191   1.337       .  A
N1185      N1186   1.332       .  A
N1185     Mn1211   2.260       .  S
N1186      C1191   1.367       .  A
N1187      N1188   1.314       .  A
N1187     Mn1189   2.180       .  S
N1188      C1190   1.346       .  A
Mn1189    Cl1213   2.528       .  S
C1190      C2897   1.486       .  S
C1191      C4601   1.478       .  S
N1192      N1193   1.312       .  A
N1192      N1198   1.313       .  A
N1192     Mn1200   2.164       .  S
N1193      C1201   1.346       .  A
N1194      N1196   1.311       .  A
N1194      N1195   1.318       .  A
N1194     Mn1212   2.177       .  S
N1195      C1202   1.350       .  A
N1196      N1197   1.318       .  A
N1196     Mn1200   2.185       .  S
N1197      C1202   1.353       .  A
N1198      N1199   1.324       .  A
N1198     Mn1212   2.211       .  S
N1199      C1201   1.359       .  A
Mn1200    Cl1213   2.537       .  S
C1201      C2889   1.470       .  S
C1202      C3033   1.468       .  S
N1203      N1204   1.329       .  A
N1203      N1209   1.318       .  A
N1203     Mn1211   2.258       .  S
N1204      C1214   1.365       .  A
N1205      N1206   1.313       .  A
N1205      N1207   1.317       .  A
N1205     Mn1212   2.163       .  S
N1206      C1215   1.344       .  A
N1207      N1208   1.330       .  A
N1207     Mn1211   2.260       .  S
N1208      C1215   1.365       .  A
N1209      N1210   1.316       .  A
N1209     Mn1212   2.181       .  S
N1210      C1214   1.346       .  A
Mn1211    Cl1213   2.567       .  S
Mn1212    Cl1213   2.533       .  S
C1214      C4225   1.489       .  S
C1215      C2873   1.485       .  S
N1216      N1217   1.332       .  A
N1216      N1222   1.319       .  A
N1216     Mn1245   2.273       .  S
N1217      C1224   1.366       .  A
N1218      N1220   1.318       .  A
N1218      N1219   1.312       .  A
N1218     Mn1234   2.168       .  S
N1219      C1225   1.343       .  A
N1220      N1221   1.331       .  A
N1220     Mn1245   2.260       .  S
N1221      C1225   1.366       .  A
N1222      N1223   1.313       .  A
N1222     Mn1234   2.165       .  S
N1223      C1224   1.344       .  A
C1224      C4289   1.489       .  S
C1225      C2809   1.486       .  S
N1226      N1232   1.311       .  A
N1226      N1227   1.315       .  A
N1226     Mn1256   2.179       .  S
N1227      C1235   1.352       .  A
N1228      N1229   1.326       .  A
N1228      N1230   1.311       .  A
N1228     Mn1234   2.214       .  S
N1229      C1236   1.360       .  A
N1230      N1231   1.312       .  A
N1230     Mn1256   2.158       .  S
N1231      C1236   1.345       .  A
N1232      N1233   1.321       .  A
N1232     Mn1234   2.192       .  S
N1233      C1235   1.354       .  A
Mn1234    Cl1258   2.541       .  S
C1235      C2785   1.470       .  S
C1236      C2833   1.470       .  S
N1237      N1238   1.333       .  A
N1237      N1243   1.317       .  A
N1237     Mn1245   2.274       .  S
N1238      C1246   1.368       .  A
N1239      N1241   1.318       .  A
N1239      N1240   1.318       .  A
N1239     Mn1257   2.185       .  S
N1240      C1247   1.348       .  A
N1241      N1242   1.328       .  A
N1241     Mn1245   2.258       .  S
N1242      C1247   1.364       .  A
N1243      N1244   1.311       .  A
N1243     Mn1257   2.154       .  S
N1244      C1246   1.341       .  A
Mn1245    Cl1258   2.560       .  S
C1246      C2817   1.487       .  S
C1247      C4217   1.491       .  S
N1248      N1249   1.314       .  A
N1248      N1254   1.311       .  A
N1248     Mn1256   2.171       .  S
N1249      C1259   1.348       .  A
N1250      N1251   1.322       .  A
N1250      N1252   1.311       .  A
N1250     Mn1257   2.203       .  S
N1251      C1260   1.356       .  A
N1252      N1253   1.314       .  A
N1252     Mn1256   2.163       .  S
N1253      C1260   1.348       .  A
N1254      N1255   1.319       .  A
N1254     Mn1257   2.177       .  S
N1255      C1259   1.352       .  A
Mn1256    Cl1258   2.530       .  S
Mn1257    Cl1258   2.539       .  S
C1259      C2849   1.461       .  S
C1260      C3217   1.468       .  S
N1261      N1262   1.319       .  A
N1261      N1267   1.312       .  A
N1261     Mn1290   2.194       .  S
N1262      C1269   1.353       .  A
N1263      N1265   1.312       .  A
N1263      N1264   1.322       .  A
N1263     Mn1279   2.202       .  S
N1264      C1270   1.355       .  A
N1265      N1266   1.315       .  A
N1265     Mn1290   2.176       .  S
N1266      C1270   1.350       .  A
N1267      N1268   1.320       .  A
N1267     Mn1279   2.183       .  S
N1268      C1269   1.352       .  A
C1269      C2769   1.472       .  S
C1270      C2721   1.469       .  S
N1271      N1277   1.317       .  A
N1271      N1272   1.335       .  A
N1271     Mn1301   2.281       .  S
N1272      C1280   1.369       .  A
N1273      N1274   1.316       .  A
N1273      N1275   1.319       .  A
N1273     Mn1279   2.182       .  S
N1274      C1281   1.347       .  A
N1275      N1276   1.329       .  A
N1275     Mn1301   2.256       .  S
N1276      C1281   1.363       .  A
N1277      N1278   1.311       .  A
N1277     Mn1279   2.158       .  S
N1278      C1280   1.341       .  A
Mn1279    Cl1303   2.541       .  S
C1280      C2705   1.493       .  S
C1281      C2969   1.487       .  S
N1282      N1283   1.319       .  A
N1282      N1288   1.312       .  A
N1282     Mn1290   2.192       .  S
N1283      C1291   1.354       .  A
N1284      N1286   1.313       .  A
N1284      N1285   1.326       .  A
N1284     Mn1302   2.211       .  S
N1285      C1292   1.359       .  A
N1286      N1287   1.312       .  A
N1286     Mn1290   2.170       .  S
N1287      C1292   1.347       .  A
N1288      N1289   1.320       .  A
N1288     Mn1302   2.186       .  S
N1289      C1291   1.352       .  A
Mn1290    Cl1303   2.543       .  S
C1291      C2737   1.474       .  S
C1292      C2753   1.473       .  S
N1293      N1294   1.332       .  A
N1293      N1299   1.318       .  A
N1293     Mn1301   2.274       .  S
N1294      C1304   1.366       .  A
N1295      N1296   1.315       .  A
N1295      N1297   1.319       .  A
N1295     Mn1302   2.178       .  S
N1296      C1305   1.345       .  A
N1297      N1298   1.329       .  A
N1297     Mn1301   2.260       .  S
N1298      C1305   1.365       .  A
N1299      N1300   1.314       .  A
N1299     Mn1302   2.167       .  S
N1300      C1304   1.344       .  A
Mn1301    Cl1303   2.557       .  S
Mn1302    Cl1303   2.544       .  S
C1304      C2689   1.490       .  S
C1305      C2801   1.486       .  S
N1306      N1307   1.330       .  A
N1306      N1312   1.317       .  A
N1306     Mn1335   2.258       .  S
N1307      C1314   1.365       .  A
N1308      N1310   1.318       .  A
N1308      N1309   1.311       .  A
N1308     Mn1324   2.161       .  S
N1309      C1315   1.342       .  A
N1310      N1311   1.331       .  A
N1310     Mn1335   2.265       .  S
N1311      C1315   1.366       .  A
N1312      N1313   1.314       .  A
N1312     Mn1324   2.166       .  S
N1313      C1314   1.344       .  A
C1314      C3841   1.486       .  S
C1315      C2657   1.483       .  S
N1316      N1322   1.312       .  A
N1316      N1317   1.319       .  A
N1316     Mn1346   2.192       .  S
N1317      C1325   1.354       .  A
N1318      N1319   1.318       .  A
N1318      N1320   1.312       .  A
N1318     Mn1324   2.181       .  S
N1319      C1326   1.351       .  A
N1320      N1321   1.318       .  A
N1320     Mn1346   2.188       .  S
N1321      C1326   1.353       .  A
N1322      N1323   1.319       .  A
N1322     Mn1324   2.188       .  S
N1323      C1325   1.352       .  A
Mn1324    Cl1348   2.523       .  S
C1325      C2641   1.473       .  S
C1326      C3105   1.468       .  S
N1327      N1328   1.331       .  A
N1327      N1333   1.317       .  A
N1327     Mn1335   2.258       .  S
N1328      C1336   1.366       .  A
N1329      N1331   1.317       .  A
N1329      N1330   1.310       .  A
N1329     Mn1347   2.156       .  S
N1330      C1337   1.341       .  A
N1331      N1332   1.331       .  A
N1331     Mn1335   2.261       .  S
N1332      C1337   1.366       .  A
N1333      N1334   1.311       .  A
N1333     Mn1347   2.157       .  S
N1334      C1336   1.342       .  A
Mn1335    Cl1348   2.567       .  S
C1336      C2609   1.482       .  S
C1337      C3785   1.481       .  S
N1338      N1339   1.318       .  A
N1338      N1344   1.311       .  A
N1338     Mn1346   2.191       .  S
N1339      C1349   1.353       .  A
N1340      N1341   1.319       .  A
N1340      N1342   1.312       .  A
N1340     Mn1347   2.183       .  S
N1341      C1350   1.351       .  A
N1342      N1343   1.318       .  A
N1342     Mn1346   2.191       .  S
N1343      C1350   1.354       .  A
N1344      N1345   1.321       .  A
N1344     Mn1347   2.186       .  S
N1345      C1349   1.353       .  A
Mn1346    Cl1348   2.557       .  S
Mn1347    Cl1348   2.524       .  S
C1349      C2673   1.475       .  S
C1350      C2625   1.469       .  S
N1351      N1352   1.313       .  A
N1351      N1357   1.312       .  A
N1351     Mn1380   2.168       .  S
N1352      C1359   1.347       .  A
N1353      N1355   1.311       .  A
N1353      N1354   1.322       .  A
N1353     Mn1369   2.194       .  S
N1354      C1360   1.355       .  A
N1355      N1356   1.316       .  A
N1355     Mn1380   2.185       .  S
N1356      C1360   1.352       .  A
N1357      N1358   1.325       .  A
N1357     Mn1369   2.202       .  S
N1358      C1359   1.357       .  A
C1359      C2545   1.470       .  S
C1360      C2561   1.473       .  S
N1361      N1367   1.318       .  A
N1361      N1362   1.334       .  A
N1361     Mn1391   2.274       .  S
N1362      C1370   1.368       .  A
N1363      N1364   1.313       .  A
N1363      N1365   1.317       .  A
N1363     Mn1369   2.158       .  S
N1364      C1371   1.342       .  A
N1365      N1366   1.330       .  A
N1365     Mn1391   2.266       .  S
N1366      C1371   1.366       .  A
N1367      N1368   1.311       .  A
N1367     Mn1369   2.168       .  S
N1368      C1370   1.342       .  A
Mn1369    Cl1393   2.540       .  S
C1370      C2585   1.491       .  S
C1371      C3321   1.485       .  S
N1372      N1373   1.314       .  A
N1372      N1378   1.312       .  A
N1372     Mn1380   2.173       .  S
N1373      C1381   1.350       .  A
N1374      N1376   1.312       .  A
N1374      N1375   1.322       .  A
N1374     Mn1392   2.194       .  S
N1375      C1382   1.355       .  A
N1376      N1377   1.316       .  A
N1376     Mn1380   2.181       .  S
N1377      C1382   1.350       .  A
N1378      N1379   1.322       .  A
N1378     Mn1392   2.195       .  S
N1379      C1381   1.354       .  A
Mn1380    Cl1393   2.532       .  S
C1381      C2601   1.468       .  S
C1382      C2777   1.471       .  S
N1383      N1384   1.330       .  A
N1383      N1389   1.319       .  A
N1383     Mn1391   2.265       .  S
N1384      C1394   1.365       .  A
N1385      N1386   1.310       .  A
N1385      N1387   1.317       .  A
N1385     Mn1392   2.155       .  S
N1386      C1395   1.340       .  A
N1387      N1388   1.334       .  A
N1387     Mn1391   2.272       .  S
N1388      C1395   1.369       .  A
N1389      N1390   1.315       .  A
N1389     Mn1392   2.174       .  S
N1390      C1394   1.345       .  A
Mn1391    Cl1393   2.565       .  S
Mn1392    Cl1393   2.539       .  S
C1394      C2929   1.487       .  S
C1395      C2665   1.488       .  S
N1396      N1397   1.333       .  A
N1396      N1402   1.317       .  A
N1396     Mn1425   2.273       .  S
N1397      C1404   1.368       .  A
N1398      N1400   1.315       .  A
N1398      N1399   1.309       .  A
N1398     Mn1414   2.152       .  S
N1399      C1405   1.341       .  A
N1400      N1401   1.332       .  A
N1400     Mn1425   2.258       .  S
N1401      C1405   1.366       .  A
N1402      N1403   1.313       .  A
N1402     Mn1414   2.167       .  S
N1403      C1404   1.343       .  A
C1404      C5177   1.492       .  S
C1405      C2513   1.483       .  S
N1406      N1412   1.313       .  A
N1406      N1407   1.315       .  A
N1406     Mn1436   2.176       .  S
N1407      C1415   1.349       .  A
N1408      N1409   1.319       .  A
N1408      N1410   1.312       .  A
N1408     Mn1414   2.174       .  S
N1409      C1416   1.350       .  A
N1410      N1411   1.320       .  A
N1410     Mn1436   2.205       .  S
N1411      C1416   1.356       .  A
N1412      N1413   1.321       .  A
N1412     Mn1414   2.195       .  S
N1413      C1415   1.355       .  A
Mn1414    Cl1438   2.533       .  S
C1415      C3465   1.465       .  S
C1416      C2529   1.471       .  S
N1417      N1418   1.329       .  A
N1417      N1423   1.318       .  A
N1417     Mn1425   2.257       .  S
N1418      C1426   1.364       .  A
N1419      N1421   1.317       .  A
N1419      N1420   1.312       .  A
N1419     Mn1437   2.153       .  S
N1420      C1427   1.341       .  A
N1421      N1422   1.329       .  A
N1421     Mn1425   2.259       .  S
N1422      C1427   1.365       .  A
N1423      N1424   1.314       .  A
N1423     Mn1437   2.175       .  S
N1424      C1426   1.345       .  A
Mn1425    Cl1438   2.565       .  S
C1426      C2497   1.485       .  S
C1427      C4825   1.479       .  S
N1428      N1429   1.315       .  A
N1428      N1434   1.314       .  A
N1428     Mn1436   2.180       .  S
N1429      C1439   1.350       .  A
N1430      N1431   1.318       .  A
N1430      N1432   1.312       .  A
N1430     Mn1437   2.177       .  S
N1431      C1440   1.351       .  A
N1432      N1433   1.320       .  A
N1432     Mn1436   2.197       .  S
N1433      C1440   1.354       .  A
N1434      N1435   1.322       .  A
N1434     Mn1437   2.201       .  S
N1435      C1439   1.355       .  A
Mn1436    Cl1438   2.539       .  S
Mn1437    Cl1438   2.536       .  S
C1439      C3001   1.469       .  S
C1440      C2881   1.472       .  S
N1441      N1442   1.316       .  A
N1441      N1447   1.310       .  A
N1441     Mn1470   2.176       .  S
N1442      C1449   1.351       .  A
N1443      N1445   1.312       .  A
N1443      N1444   1.323       .  A
N1443     Mn1459   2.199       .  S
N1444      C1450   1.356       .  A
N1445      N1446   1.313       .  A
N1445     Mn1470   2.169       .  S
N1446      C1450   1.348       .  A
N1447      N1448   1.321       .  A
N1447     Mn1459   2.187       .  S
N1448      C1449   1.353       .  A
C1449      C2481   1.468       .  S
C1450      C2793   1.467       .  S
N1451      N1457   1.317       .  A
N1451      N1452   1.333       .  A
N1451     Mn1481   2.274       .  S
N1452      C1460   1.368       .  A
N1453      N1454   1.312       .  A
N1453      N1455   1.318       .  A
N1453     Mn1459   2.172       .  S
N1454      C1461   1.344       .  A
N1455      N1456   1.333       .  A
N1455     Mn1481   2.271       .  S
N1456      C1461   1.367       .  A
N1457      N1458   1.313       .  A
N1457     Mn1459   2.160       .  S
N1458      C1460   1.342       .  A
Mn1459    Cl1483   2.540       .  S
C1460      C2713   1.491       .  S
C1461      C4953   1.491       .  S
N1462      N1463   1.315       .  A
N1462      N1468   1.311       .  A
N1462     Mn1470   2.174       .  S
N1463      C1471   1.349       .  A
N1464      N1466   1.312       .  A
N1464      N1465   1.324       .  A
N1464     Mn1482   2.211       .  S
N1465      C1472   1.358       .  A
N1466      N1467   1.314       .  A
N1466     Mn1470   2.169       .  S
N1467      C1472   1.349       .  A
N1468      N1469   1.323       .  A
N1468     Mn1482   2.196       .  S
N1469      C1471   1.356       .  A
Mn1470    Cl1483   2.541       .  S
C1471      C3201   1.472       .  S
C1472      C3281   1.473       .  S
N1473      N1474   1.329       .  A
N1473      N1479   1.318       .  A
N1473     Mn1481   2.260       .  S
N1474      C1484   1.364       .  A
N1475      N1476   1.317       .  A
N1475      N1477   1.320       .  A
N1475     Mn1482   2.180       .  S
N1476      C1485   1.346       .  A
N1477      N1478   1.328       .  A
N1477     Mn1481   2.266       .  S
N1478      C1485   1.364       .  A
N1479      N1480   1.313       .  A
N1479     Mn1482   2.164       .  S
N1480      C1484   1.343       .  A
Mn1481    Cl1483   2.553       .  S
Mn1482    Cl1483   2.543       .  S
C1484      C4729   1.481       .  S
C1485      C2465   1.488       .  S
N1486      N1487   1.315       .  A
N1486      N1492   1.312       .  A
N1486     Mn1515   2.173       .  S
N1487      C1494   1.349       .  A
N1488      N1490   1.313       .  A
N1488      N1489   1.323       .  A
N1488     Mn1504   2.203       .  S
N1489      C1495   1.356       .  A
N1490      N1491   1.314       .  A
N1490     Mn1515   2.173       .  S
N1491      C1495   1.349       .  A
N1492      N1493   1.320       .  A
N1492     Mn1504   2.189       .  S
N1493      C1494   1.354       .  A
C1494      C2449   1.465       .  S
C1495      C2953   1.470       .  S
N1496      N1502   1.318       .  A
N1496      N1497   1.331       .  A
N1496     Mn1526   2.270       .  S
N1497      C1505   1.366       .  A
N1498      N1499   1.317       .  A
N1498      N1500   1.317       .  A
N1498     Mn1504   2.184       .  S
N1499      C1506   1.347       .  A
N1500      N1501   1.331       .  A
N1500     Mn1526   2.265       .  S
N1501      C1506   1.365       .  A
N1502      N1503   1.315       .  A
N1502     Mn1504   2.176       .  S
N1503      C1505   1.345       .  A
Mn1504    Cl1528   2.544       .  S
C1505      C2697   1.492       .  S
C1506      C4873   1.495       .  S
N1507      N1508   1.316       .  A
N1507      N1513   1.312       .  A
N1507     Mn1515   2.182       .  S
N1508      C1516   1.352       .  A
N1509      N1511   1.310       .  A
N1509      N1510   1.321       .  A
N1509     Mn1527   2.187       .  S
N1510      C1517   1.354       .  A
N1511      N1512   1.316       .  A
N1511     Mn1515   2.177       .  S
N1512      C1517   1.351       .  A
N1513      N1514   1.322       .  A
N1513     Mn1527   2.198       .  S
N1514      C1516   1.355       .  A
Mn1515    Cl1528   2.539       .  S
C1516      C3385   1.472       .  S
C1517      C2433   1.470       .  S
N1518      N1519   1.329       .  A
N1518      N1524   1.318       .  A
N1518     Mn1526   2.257       .  S
N1519      C1529   1.363       .  A
N1520      N1521   1.309       .  A
N1520      N1522   1.318       .  A
N1520     Mn1527   2.153       .  S
N1521      C1530   1.340       .  A
N1522      N1523   1.333       .  A
N1522     Mn1526   2.273       .  S
N1523      C1530   1.367       .  A
N1524      N1525   1.314       .  A
N1524     Mn1527   2.167       .  S
N1525      C1529   1.344       .  A
Mn1526    Cl1528   2.551       .  S
Mn1527    Cl1528   2.543       .  S
C1529      C4793   1.481       .  S
C1530      C2425   1.484       .  S
N1531      N1532   1.331       .  A
N1531      N1537   1.317       .  A
N1531     Mn1560   2.268       .  S
N1532      C1539   1.367       .  A
N1533      N1535   1.317       .  A
N1533      N1534   1.311       .  A
N1533     Mn1549   2.155       .  S
N1534      C1540   1.341       .  A
N1535      N1536   1.331       .  A
N1535     Mn1560   2.266       .  S
N1536      C1540   1.367       .  A
N1537      N1538   1.313       .  A
N1537     Mn1549   2.160       .  S
N1538      C1539   1.342       .  A
C1539      C3433   1.486       .  S
C1540      C2417   1.485       .  S
N1541      N1547   1.312       .  A
N1541      N1542   1.319       .  A
N1541     Mn1571   2.201       .  S
N1542      C1550   1.356       .  A
N1543      N1544   1.318       .  A
N1543      N1545   1.312       .  A
N1543     Mn1549   2.176       .  S
N1544      C1551   1.350       .  A
N1545      N1546   1.318       .  A
N1545     Mn1571   2.188       .  S
N1546      C1551   1.352       .  A
N1547      N1548   1.319       .  A
N1547     Mn1549   2.179       .  S
N1548      C1550   1.350       .  A
Mn1549    Cl1573   2.522       .  S
C1550      C2761   1.473       .  S
C1551      C2385   1.464       .  S
N1552      N1553   1.333       .  A
N1552      N1558   1.317       .  A
N1552     Mn1560   2.268       .  S
N1553      C1561   1.368       .  A
N1554      N1556   1.317       .  A
N1554      N1555   1.312       .  A
N1554     Mn1572   2.157       .  S
N1555      C1562   1.342       .  A
N1556      N1557   1.330       .  A
N1556     Mn1560   2.264       .  S
N1557      C1562   1.366       .  A
N1558      N1559   1.308       .  A
N1558     Mn1572   2.153       .  S
N1559      C1561   1.340       .  A
Mn1560    Cl1573   2.570       .  S
C1561      C3329   1.486       .  S
C1562      C2521   1.484       .  S
N1563      N1564   1.320       .  A
N1563      N1569   1.312       .  A
N1563     Mn1571   2.197       .  S
N1564      C1574   1.354       .  A
N1565      N1566   1.319       .  A
N1565      N1567   1.312       .  A
N1565     Mn1572   2.180       .  S
N1566      C1575   1.350       .  A
N1567      N1568   1.319       .  A
N1567     Mn1571   2.199       .  S
N1568      C1575   1.356       .  A
N1569      N1570   1.318       .  A
N1569     Mn1572   2.180       .  S
N1570      C1574   1.351       .  A
Mn1571    Cl1573   2.559       .  S
Mn1572    Cl1573   2.520       .  S
C1574      C2409   1.470       .  S
C1575      C2553   1.472       .  S
N1576      N1577   1.315       .  A
N1576      N1582   1.313       .  A
N1576     Mn1605   2.179       .  S
N1577      C1584   1.350       .  A
N1578      N1580   1.314       .  A
N1578      N1579   1.325       .  A
N1578     Mn1594   2.214       .  S
N1579      C1585   1.359       .  A
N1580      N1581   1.314       .  A
N1580     Mn1605   2.177       .  S
N1581      C1585   1.348       .  A
N1582      N1583   1.323       .  A
N1582     Mn1594   2.202       .  S
N1583      C1584   1.356       .  A
C1584      C2361   1.473       .  S
C1585      C2681   1.477       .  S
N1586      N1592   1.318       .  A
N1586      N1587   1.328       .  A
N1586     Mn1616   2.256       .  S
N1587      C1595   1.362       .  A
N1588      N1589   1.317       .  A
N1588      N1590   1.319       .  A
N1588     Mn1594   2.186       .  S
N1589      C1596   1.347       .  A
N1590      N1591   1.328       .  A
N1590     Mn1616   2.256       .  S
N1591      C1596   1.363       .  A
N1592      N1593   1.317       .  A
N1592     Mn1594   2.182       .  S
N1593      C1595   1.347       .  A
Mn1594    Cl1618   2.552       .  S
C1595      C3769   1.485       .  S
C1596      C5121   1.487       .  S
N1597      N1598   1.314       .  A
N1597      N1603   1.311       .  A
N1597     Mn1605   2.183       .  S
N1598      C1606   1.351       .  A
N1599      N1601   1.312       .  A
N1599      N1600   1.323       .  A
N1599     Mn1617   2.197       .  S
N1600      C1607   1.355       .  A
N1601      N1602   1.317       .  A
N1601     Mn1605   2.190       .  S
N1602      C1607   1.352       .  A
N1603      N1604   1.320       .  A
N1603     Mn1617   2.171       .  S
N1604      C1606   1.351       .  A
Mn1605    Cl1618   2.525       .  S
C1606      C3065   1.462       .  S
C1607      C2369   1.476       .  S
N1608      N1609   1.335       .  A
N1608      N1614   1.316       .  A
N1608     Mn1616   2.277       .  S
N1609      C1619   1.370       .  A
N1610      N1611   1.312       .  A
N1610      N1612   1.317       .  A
N1610     Mn1617   2.165       .  S
N1611      C1620   1.343       .  A
N1612      N1613   1.333       .  A
N1612     Mn1616   2.263       .  S
N1613      C1620   1.366       .  A
N1614      N1615   1.308       .  A
N1614     Mn1617   2.141       .  S
N1615      C1619   1.339       .  A
Mn1616    Cl1618   2.557       .  S
Mn1617    Cl1618   2.545       .  S
C1619      C4681   1.489       .  S
C1620      C3529   1.488       .  S
N1621      N1622   1.315       .  A
N1621      N1627   1.311       .  A
N1621     Mn1650   2.185       .  S
N1622      C1629   1.352       .  A
N1623      N1625   1.313       .  A
N1623      N1624   1.326       .  A
N1623     Mn1639   2.219       .  S
N1624      C1630   1.359       .  A
N1625      N1626   1.312       .  A
N1625     Mn1650   2.164       .  S
N1626      C1630   1.346       .  A
N1627      N1628   1.320       .  A
N1627     Mn1639   2.174       .  S
N1628      C1629   1.351       .  A
C1629      C2393   1.465       .  S
C1630      C2745   1.472       .  S
N1631      N1637   1.317       .  A
N1631      N1632   1.333       .  A
N1631     Mn1661   2.273       .  S
N1632      C1640   1.368       .  A
N1633      N1634   1.316       .  A
N1633      N1635   1.319       .  A
N1633     Mn1639   2.186       .  S
N1634      C1641   1.347       .  A
N1635      N1636   1.330       .  A
N1635     Mn1661   2.260       .  S
N1636      C1641   1.364       .  A
N1637      N1638   1.310       .  A
N1637     Mn1639   2.150       .  S
N1638      C1640   1.341       .  A
Mn1639    Cl1663   2.539       .  S
C1640      C2825   1.487       .  S
C1641      C3417   1.490       .  S
N1642      N1643   1.320       .  A
N1642      N1648   1.311       .  A
N1642     Mn1650   2.192       .  S
N1643      C1651   1.354       .  A
N1644      N1646   1.312       .  A
N1644      N1645   1.321       .  A
N1644     Mn1662   2.200       .  S
N1645      C1652   1.355       .  A
N1646      N1647   1.316       .  A
N1646     Mn1650   2.173       .  S
N1647      C1652   1.350       .  A
N1648      N1649   1.319       .  A
N1648     Mn1662   2.186       .  S
N1649      C1651   1.353       .  A
Mn1650    Cl1663   2.538       .  S
C1651      C2329   1.474       .  S
C1652      C2337   1.469       .  S
N1653      N1654   1.332       .  A
N1653      N1659   1.317       .  A
N1653     Mn1661   2.271       .  S
N1654      C1664   1.368       .  A
N1655      N1656   1.315       .  A
N1655      N1657   1.319       .  A
N1655     Mn1662   2.182       .  S
N1656      C1665   1.346       .  A
N1657      N1658   1.328       .  A
N1657     Mn1661   2.254       .  S
N1658      C1665   1.363       .  A
N1659      N1660   1.312       .  A
N1659     Mn1662   2.154       .  S
N1660      C1664   1.341       .  A
Mn1661    Cl1663   2.567       .  S
Mn1662    Cl1663   2.531       .  S
C1664      C2905   1.488       .  S
C1665      C3169   1.486       .  S
N1666      N1667   1.329       .  A
N1666      N1672   1.319       .  A
N1666     Mn1695   2.256       .  S
N1667      C1674   1.364       .  A
N1668      N1670   1.316       .  A
N1668      N1669   1.310       .  A
N1668     Mn1684   2.149       .  S
N1669      C1675   1.341       .  A
N1670      N1671   1.333       .  A
N1670     Mn1695   2.270       .  S
N1671      C1675   1.367       .  A
N1672      N1673   1.315       .  A
N1672     Mn1684   2.185       .  S
N1673      C1674   1.346       .  A
C1674      C4937   1.487       .  S
C1675      C4361   1.487       .  S
N1676      N1682   1.313       .  A
N1676      N1677   1.315       .  A
N1676     Mn1706   2.181       .  S
N1677      C1685   1.349       .  A
N1678      N1679   1.317       .  A
N1678      N1680   1.312       .  A
N1678     Mn1684   2.167       .  S
N1679      C1686   1.348       .  A
N1680      N1681   1.319       .  A
N1680     Mn1706   2.198       .  S
N1681      C1686   1.355       .  A
N1682      N1683   1.324       .  A
N1682     Mn1684   2.208       .  S
N1683      C1685   1.357       .  A
Mn1684    Cl1708   2.534       .  S
C1685      C2297   1.474       .  S
C1686      C2305   1.467       .  S
N1687      N1688   1.330       .  A
N1687      N1693   1.319       .  A
N1687     Mn1695   2.255       .  S
N1688      C1696   1.364       .  A
N1689      N1691   1.317       .  A
N1689      N1690   1.310       .  A
N1689     Mn1707   2.146       .  S
N1690      C1697   1.340       .  A
N1691      N1692   1.332       .  A
N1691     Mn1695   2.273       .  S
N1692      C1697   1.367       .  A
N1693      N1694   1.314       .  A
N1693     Mn1707   2.178       .  S
N1694      C1696   1.345       .  A
Mn1695    Cl1708   2.563       .  S
C1696      C4089   1.485       .  S
C1697      C4665   1.484       .  S
N1698      N1699   1.316       .  A
N1698      N1704   1.314       .  A
N1698     Mn1706   2.190       .  S
N1699      C1709   1.352       .  A
N1700      N1701   1.319       .  A
N1700      N1702   1.311       .  A
N1700     Mn1707   2.168       .  S
N1701      C1710   1.350       .  A
N1702      N1703   1.317       .  A
N1702     Mn1706   2.190       .  S
N1703      C1710   1.353       .  A
N1704      N1705   1.324       .  A
N1704     Mn1707   2.209       .  S
N1705      C1709   1.357       .  A
Mn1706    Cl1708   2.547       .  S
Mn1707    Cl1708   2.536       .  S
C1709      C2377   1.478       .  S
C1710      C3097   1.467       .  S
N1711      N1712   1.316       .  A
N1711      N1717   1.312       .  A
N1711     Mn1740   2.185       .  S
N1712      C1719   1.351       .  A
N1713      N1715   1.311       .  A
N1713      N1714   1.322       .  A
N1713     Mn1729   2.188       .  S
N1714      C1720   1.354       .  A
N1715      N1716   1.314       .  A
N1715     Mn1740   2.179       .  S
N1716      C1720   1.350       .  A
N1717      N1718   1.321       .  A
N1717     Mn1729   2.187       .  S
N1718      C1719   1.353       .  A
C1719      C2345   1.468       .  S
C1720      C2257   1.469       .  S
N1721      N1727   1.317       .  A
N1721      N1722   1.330       .  A
N1721     Mn1751   2.248       .  S
N1722      C1730   1.364       .  A
N1723      N1724   1.311       .  A
N1723      N1725   1.317       .  A
N1723     Mn1729   2.158       .  S
N1724      C1731   1.341       .  A
N1725      N1726   1.333       .  A
N1725     Mn1751   2.275       .  S
N1726      C1731   1.368       .  A
N1727      N1728   1.310       .  A
N1727     Mn1729   2.159       .  S
N1728      C1730   1.343       .  A
Mn1729    Cl1753   2.538       .  S
C1730      C2273   1.480       .  S
C1731      C2865   1.489       .  S
N1732      N1733   1.318       .  A
N1732      N1738   1.312       .  A
N1732     Mn1740   2.188       .  S
N1733      C1741   1.352       .  A
N1734      N1736   1.312       .  A
N1734      N1735   1.321       .  A
N1734     Mn1752   2.199       .  S
N1735      C1742   1.355       .  A
N1736      N1737   1.317       .  A
N1736     Mn1740   2.178       .  S
N1737      C1742   1.350       .  A
N1738      N1739   1.321       .  A
N1738     Mn1752   2.194       .  S
N1739      C1741   1.354       .  A
Mn1740    Cl1753   2.542       .  S
C1741      C2569   1.473       .  S
C1742      C2401   1.470       .  S
N1743      N1744   1.329       .  A
N1743      N1749   1.318       .  A
N1743     Mn1751   2.254       .  S
N1744      C1754   1.363       .  A
N1745      N1746   1.316       .  A
N1745      N1747   1.318       .  A
N1745     Mn1752   2.178       .  S
N1746      C1755   1.346       .  A
N1747      N1748   1.331       .  A
N1747     Mn1751   2.268       .  S
N1748      C1755   1.365       .  A
N1749      N1750   1.314       .  A
N1749     Mn1752   2.174       .  S
N1750      C1754   1.345       .  A
Mn1751    Cl1753   2.555       .  S
Mn1752    Cl1753   2.540       .  S
C1754      C2505   1.485       .  S
C1755      C2249   1.491       .  S
N1756      N1757   1.328       .  A
N1756      N1762   1.319       .  A
N1756     Mn1785   2.255       .  S
N1757      C1764   1.363       .  A
N1758      N1760   1.317       .  A
N1758      N1759   1.313       .  A
N1758     Mn1774   2.167       .  S
N1759      C1765   1.343       .  A
N1760      N1761   1.334       .  A
N1760     Mn1785   2.275       .  S
N1761      C1765   1.368       .  A
N1762      N1763   1.317       .  A
N1762     Mn1774   2.189       .  S
N1763      C1764   1.348       .  A
C1764      C5113   1.490       .  S
C1765      C2209   1.494       .  S
N1766      N1772   1.312       .  A
N1766      N1767   1.313       .  A
N1766     Mn1796   2.163       .  S
N1767      C1775   1.347       .  A
N1768      N1769   1.320       .  A
N1768      N1770   1.313       .  A
N1768     Mn1774   2.184       .  S
N1769      C1776   1.352       .  A
N1770      N1771   1.318       .  A
N1770     Mn1796   2.196       .  S
N1771      C1776   1.354       .  A
N1772      N1773   1.323       .  A
N1772     Mn1774   2.208       .  S
N1773      C1775   1.357       .  A
Mn1774    Cl1798   2.536       .  S
C1775      C2633   1.468       .  S
C1776      C2353   1.473       .  S
N1777      N1778   1.328       .  A
N1777      N1783   1.317       .  A
N1777     Mn1785   2.247       .  S
N1778      C1786   1.363       .  A
N1779      N1781   1.317       .  A
N1779      N1780   1.309       .  A
N1779     Mn1797   2.144       .  S
N1780      C1787   1.340       .  A
N1781      N1782   1.332       .  A
N1781     Mn1785   2.272       .  S
N1782      C1787   1.367       .  A
N1783      N1784   1.313       .  A
N1783     Mn1797   2.166       .  S
N1784      C1786   1.343       .  A
Mn1785    Cl1798   2.558       .  S
C1786      C2281   1.479       .  S
C1787      C4905   1.483       .  S
N1788      N1789   1.314       .  A
N1788      N1794   1.312       .  A
N1788     Mn1796   2.172       .  S
N1789      C1799   1.349       .  A
N1790      N1791   1.317       .  A
N1790      N1792   1.310       .  A
N1790     Mn1797   2.163       .  S
N1791      C1800   1.349       .  A
N1792      N1793   1.318       .  A
N1792     Mn1796   2.195       .  S
N1793      C1800   1.355       .  A
N1794      N1795   1.322       .  A
N1794     Mn1797   2.195       .  S
N1795      C1799   1.355       .  A
Mn1796    Cl1798   2.542       .  S
Mn1797    Cl1798   2.534       .  S
C1799      C2313   1.466       .  S
C1800      C2225   1.466       .  S
N1801      N1802   1.314       .  A
N1801      N1807   1.312       .  A
N1801     Mn1830   2.166       .  S
N1802      C1809   1.348       .  A
N1803      N1805   1.312       .  A
N1803      N1804   1.324       .  A
N1803     Mn1819   2.203       .  S
N1804      C1810   1.357       .  A
N1805      N1806   1.314       .  A
N1805     Mn1830   2.177       .  S
N1806      C1810   1.348       .  A
N1807      N1808   1.323       .  A
N1807     Mn1819   2.205       .  S
N1808      C1809   1.356       .  A
C1809      C3081   1.469       .  S
C1810      C2649   1.473       .  S
N1811      N1817   1.319       .  A
N1811      N1812   1.328       .  A
N1811     Mn1841   2.259       .  S
N1812      C1820   1.364       .  A
N1813      N1814   1.313       .  A
N1813      N1815   1.318       .  A
N1813     Mn1819   2.170       .  S
N1814      C1821   1.344       .  A
N1815      N1816   1.331       .  A
N1815     Mn1841   2.264       .  S
N1816      C1821   1.365       .  A
N1817      N1818   1.317       .  A
N1817     Mn1819   2.183       .  S
N1818      C1820   1.347       .  A
Mn1819    Cl1843   2.546       .  S
C1820      C2577   1.488       .  S
C1821      C4569   1.487       .  S
N1822      N1823   1.313       .  A
N1822      N1828   1.311       .  A
N1822     Mn1830   2.167       .  S
N1823      C1831   1.347       .  A
N1824      N1826   1.311       .  A
N1824      N1825   1.321       .  A
N1824     Mn1842   2.194       .  S
N1825      C1832   1.354       .  A
N1826      N1827   1.318       .  A
N1826     Mn1830   2.188       .  S
N1827      C1832   1.353       .  A
N1828      N1829   1.322       .  A
N1828     Mn1842   2.191       .  S
N1829      C1831   1.355       .  A
Mn1830    Cl1843   2.529       .  S
C1831      C2233   1.464       .  S
C1832      C2289   1.474       .  S
N1833      N1834   1.332       .  A
N1833      N1839   1.317       .  A
N1833     Mn1841   2.265       .  S
N1834      C1844   1.366       .  A
N1835      N1836   1.313       .  A
N1835      N1837   1.317       .  A
N1835     Mn1842   2.164       .  S
N1836      C1845   1.343       .  A
N1837      N1838   1.333       .  A
N1837     Mn1841   2.278       .  S
N1838      C1845   1.368       .  A
N1839      N1840   1.311       .  A
N1839     Mn1842   2.157       .  S
N1840      C1844   1.341       .  A
Mn1841    Cl1843   2.557       .  S
Mn1842    Cl1843   2.543       .  S
C1844      C4321   1.485       .  S
C1845      C2241   1.494       .  S
N1846      N1847   1.327       .  A
N1846      N1852   1.317       .  A
N1846     Mn1875   2.244       .  S
N1847      C1854   1.361       .  A
N1848      N1850   1.319       .  A
N1848      N1849   1.318       .  A
N1848     Mn1864   2.185       .  S
N1849      C1855   1.347       .  A
N1850      N1851   1.330       .  A
N1850     Mn1875   2.268       .  S
N1851      C1855   1.366       .  A
N1852      N1853   1.315       .  A
N1852     Mn1864   2.175       .  S
N1853      C1854   1.346       .  A
C1854      C3193   1.481       .  S
C1855      C2217   1.494       .  S
N1856      N1862   1.313       .  A
N1856      N1857   1.318       .  A
N1856     Mn1886   2.192       .  S
N1857      C1865   1.353       .  A
N1858      N1859   1.322       .  A
N1858      N1860   1.314       .  A
N1858     Mn1864   2.210       .  S
N1859      C1866   1.356       .  A
N1860      N1861   1.317       .  A
N1860     Mn1886   2.183       .  S
N1861      C1866   1.350       .  A
N1862      N1863   1.320       .  A
N1862     Mn1864   2.185       .  S
N1863      C1865   1.352       .  A
Mn1864    Cl1888   2.540       .  S
C1865      C2265   1.471       .  S
C1866      C2321   1.475       .  S
N1867      N1868   1.333       .  A
N1867      N1873   1.316       .  A
N1867     Mn1875   2.263       .  S
N1868      C1876   1.367       .  A
N1869      N1871   1.317       .  A
N1869      N1870   1.311       .  A
N1869     Mn1887   2.159       .  S
N1870      C1877   1.343       .  A
N1871      N1872   1.333       .  A
N1871     Mn1875   2.268       .  S
N1872      C1877   1.367       .  A
N1873      N1874   1.309       .  A
N1873     Mn1887   2.146       .  S
N1874      C1876   1.340       .  A
Mn1875    Cl1888   2.563       .  S
C1876      C2617   1.482       .  S
C1877      C2473   1.489       .  S
N1878      N1879   1.317       .  A
N1878      N1884   1.312       .  A
N1878     Mn1886   2.190       .  S
N1879      C1889   1.352       .  A
N1880      N1881   1.320       .  A
N1880      N1882   1.313       .  A
N1880     Mn1887   2.181       .  S
N1881      C1890   1.351       .  A
N1882      N1883   1.317       .  A
N1882     Mn1886   2.194       .  S
N1883      C1890   1.353       .  A
N1884      N1885   1.320       .  A
N1884     Mn1887   2.181       .  S
N1885      C1889   1.352       .  A
Mn1886    Cl1888   2.537       .  S
Mn1887    Cl1888   2.537       .  S
C1889      C2729   1.467       .  S
C1890      C2593   1.467       .  S
N1891      N1892   1.329       .  A
N1891      N1897   1.316       .  A
N1891     Mn1920   2.253       .  S
N1892      C1899   1.365       .  A
N1893      N1895   1.316       .  A
N1893      N1894   1.313       .  A
N1893     Mn1909   2.159       .  S
N1894      C1900   1.343       .  A
N1895      N1896   1.330       .  A
N1895     Mn1920   2.260       .  S
N1896      C1900   1.366       .  A
N1897      N1898   1.311       .  A
N1897     Mn1909   2.149       .  S
N1898      C1899   1.341       .  A
C1899      C4841   1.477       .  S
C1900      C4409   1.485       .  S
N1901      N1907   1.312       .  A
N1901      N1902   1.321       .  A
N1901     Mn1931   2.198       .  S
N1902      C1910   1.356       .  A
N1903      N1904   1.318       .  A
N1903      N1905   1.313       .  A
N1903     Mn1909   2.178       .  S
N1904      C1911   1.350       .  A
N1905      N1906   1.319       .  A
N1905     Mn1931   2.197       .  S
N1906      C1911   1.355       .  A
N1907      N1908   1.315       .  A
N1907     Mn1909   2.169       .  S
N1908      C1910   1.348       .  A
Mn1909    Cl1933   2.523       .  S
C1910      C2977   1.468   1_556  S
C1911      C2457   1.468       .  S
N1912      N1913   1.330       .  A
N1912      N1918   1.316       .  A
N1912     Mn1920   2.252       .  S
N1913      C1921   1.364       .  A
N1914      N1916   1.317       .  A
N1914      N1915   1.312       .  A
N1914     Mn1932   2.158       .  S
N1915      C1922   1.342       .  A
N1916      N1917   1.331       .  A
N1916     Mn1920   2.266       .  S
N1917      C1922   1.367       .  A
N1918      N1919   1.314       .  A
N1918     Mn1932   2.172       .  S
N1919      C1921   1.346       .  A
Mn1920    Cl1933   2.567       .  S
C1921      C4505   1.486       .  S
C1922      C4697   1.485       .  S
N1923      N1924   1.319       .  A
N1923      N1929   1.313       .  A
N1923     Mn1931   2.198       .  S
N1924      C1934   1.355       .  A
N1925      N1926   1.320       .  A
N1925      N1927   1.313       .  A
N1925     Mn1932   2.184       .  S
N1926      C1935   1.352       .  A
N1927      N1928   1.317       .  A
N1927     Mn1931   2.191       .  S
N1928      C1935   1.352       .  A
N1929      N1930   1.319       .  A
N1929     Mn1932   2.187       .  S
N1930      C1934   1.351       .  A
Mn1931    Cl1933   2.549       .  S
Mn1932    Cl1933   2.530       .  S
C1934      C2193   1.473       .  S
C1935      C3137   1.466       .  S
N1936      N1937   1.315       .  A
N1936      N1942   1.312       .  A
N1936     Mn1965   2.176       .  S
N1937      C1944   1.349       .  A
N1938      N1940   1.311       .  A
N1938      N1939   1.321       .  A
N1938     Mn1954   2.192       .  S
N1939      C1945   1.355       .  A
N1940      N1941   1.313       .  A
N1940     Mn1965   2.167       .  S
N1941      C1945   1.348       .  A
N1942      N1943   1.324       .  A
N1942     Mn1954   2.206       .  S
N1943      C1944   1.356       .  A
C1944      C2537   1.472       .  S
C1945      C3497   1.464       .  S
N1946      N1952   1.318       .  A
N1946      N1947   1.332       .  A
N1946     Mn1976   2.270       .  S
N1947      C1955   1.366       .  A
N1948      N1949   1.313       .  A
N1948      N1950   1.319       .  A
N1948     Mn1954   2.169       .  S
N1949      C1956   1.344       .  A
N1950      N1951   1.331       .  A
N1950     Mn1976   2.268       .  S
N1951      C1956   1.366       .  A
N1952      N1953   1.315       .  A
N1952     Mn1954   2.177       .  S
N1953      C1955   1.346       .  A
Mn1954    Cl1978   2.542       .  S
C1955      C3713   1.494       .  S
C1956      C5217   1.487       .  S
N1957      N1958   1.316       .  A
N1957      N1963   1.311       .  A
N1957     Mn1965   2.174       .  S
N1958      C1966   1.349       .  A
N1959      N1961   1.312       .  A
N1959      N1960   1.322       .  A
N1959     Mn1977   2.199       .  S
N1960      C1967   1.355       .  A
N1961      N1962   1.316       .  A
N1961     Mn1965   2.173       .  S
N1962      C1967   1.350       .  A
N1963      N1964   1.322       .  A
N1963     Mn1977   2.194       .  S
N1964      C1966   1.355       .  A
Mn1965    Cl1978   2.543       .  S
C1966      C2177   1.470       .  S
C1967      C3017   1.470       .  S
N1968      N1969   1.331       .  A
N1968      N1974   1.318       .  A
N1968     Mn1976   2.270       .  S
N1969      C1979   1.367       .  A
N1970      N1971   1.315       .  A
N1970      N1972   1.318       .  A
N1970     Mn1977   2.177       .  S
N1971      C1980   1.346       .  A
N1972      N1973   1.330       .  A
N1972     Mn1976   2.262       .  S
N1973      C1980   1.365       .  A
N1974      N1975   1.314       .  A
N1974     Mn1977   2.168       .  S
N1975      C1979   1.344       .  A
Mn1976    Cl1978   2.555       .  S
Mn1977    Cl1978   2.538       .  S
C1979      C5089   1.490       .  S
C1980      C3545   1.490       .  S
N1981      N1982   1.318       .  A
N1981      N1987   1.313       .  A
N1981     Mn2010   2.198       .  S
N1982      C1989   1.353       .  A
N1983      N1985   1.313       .  A
N1983      N1984   1.318       .  A
N1983     Mn1999   2.179       .  S
N1984      C1990   1.350       .  A
N1985      N1986   1.317       .  A
N1985     Mn2010   2.190       .  S
N1986      C1990   1.353       .  A
N1987      N1988   1.321       .  A
N1987     Mn1999   2.186       .  S
N1988      C1989   1.353       .  A
C1989      C3265   1.473       .  S
C1990      C2161   1.464       .  S
N1991      N1997   1.316       .  A
N1991      N1992   1.331       .  A
N1991     Mn2021   2.255       .  S
N1992      C2000   1.365       .  A
N1993      N1994   1.312       .  A
N1993      N1995   1.317       .  A
N1993     Mn1999   2.160       .  S
N1994      C2001   1.344       .  A
N1995      N1996   1.330       .  A
N1995     Mn2021   2.258       .  S
N1996      C2001   1.364       .  A
N1997      N1998   1.310       .  A
N1997     Mn1999   2.156       .  S
N1998      C2000   1.342       .  A
Mn1999    Cl2023   2.529       .  S
C2000      C4121   1.482       .  S
C2001      C5081   1.484       .  S
N2002      N2003   1.322       .  A
N2002      N2008   1.313       .  A
N2002     Mn2010   2.205       .  S
N2003      C2011   1.357       .  A
N2004      N2006   1.313       .  A
N2004      N2005   1.319       .  A
N2004     Mn2022   2.190       .  S
N2005      C2012   1.352       .  A
N2006      N2007   1.317       .  A
N2006     Mn2010   2.183       .  S
N2007      C2012   1.351       .  A
N2008      N2009   1.316       .  A
N2008     Mn2022   2.173       .  S
N2009      C2011   1.348       .  A
Mn2010    Cl2023   2.547       .  S
C2011      C2841   1.472       .  S
C2012      C2489   1.467   1_556  S
N2013      N2014   1.329       .  A
N2013      N2019   1.316       .  A
N2013     Mn2021   2.251       .  S
N2014      C2024   1.364       .  A
N2015      N2016   1.315       .  A
N2015      N2017   1.316       .  A
N2015     Mn2022   2.172       .  S
N2016      C2025   1.345       .  A
N2017      N2018   1.330       .  A
N2017     Mn2021   2.260       .  S
N2018      C2025   1.366       .  A
N2019      N2020   1.312       .  A
N2019     Mn2022   2.162       .  S
N2020      C2024   1.344       .  A
Mn2021    Cl2023   2.566       .  S
Mn2022    Cl2023   2.524       .  S
C2024      C4977   1.483       .  S
C2025      C4265   1.489       .  S
N2026      N2027   1.330       .  A
N2026      N2032   1.317       .  A
N2026     Mn2055   2.260       .  S
N2027      C2034   1.365       .  A
N2028      N2030   1.317       .  A
N2028      N2029   1.309       .  A
N2028     Mn2044   2.148       .  S
N2029      C2035   1.341       .  A
N2030      N2031   1.331       .  A
N2030     Mn2055   2.265       .  S
N2031      C2035   1.366       .  A
N2032      N2033   1.314       .  A
N2032     Mn2044   2.172       .  S
N2033      C2034   1.344       .  A
C2034      C4185   1.487       .  S
C2035      C3945   1.482       .  S
N2036      N2042   1.311       .  A
N2036      N2037   1.312       .  A
N2036     Mn2066   2.161       .  S
N2037      C2045   1.346       .  A
N2038      N2039   1.317       .  A
N2038      N2040   1.310       .  A
N2038     Mn2044   2.169       .  S
N2039      C2046   1.350       .  A
N2040      N2041   1.316       .  A
N2040     Mn2066   2.177       .  S
N2041      C2046   1.353       .  A
N2042      N2043   1.325       .  A
N2042     Mn2044   2.210       .  S
N2043      C2045   1.359       .  A
Mn2044    Cl2068   2.537       .  S
C2045      C3241   1.470       .  S
C2046      C2857   1.462       .  S
N2047      N2048   1.328       .  A
N2047      N2053   1.319       .  A
N2047     Mn2055   2.256       .  S
N2048      C2056   1.362       .  A
N2049      N2051   1.318       .  A
N2049      N2050   1.313       .  A
N2049     Mn2067   2.167       .  S
N2050      C2057   1.343       .  A
N2051      N2052   1.332       .  A
N2051     Mn2055   2.271       .  S
N2052      C2057   1.367       .  A
N2053      N2054   1.316       .  A
N2053     Mn2067   2.180       .  S
N2054      C2056   1.347       .  A
Mn2055    Cl2068   2.556       .  S
C2056      C4041   1.485       .  S
C2057      C4137   1.490       .  S
N2058      N2059   1.313       .  A
N2058      N2064   1.311       .  A
N2058     Mn2066   2.162       .  S
N2059      C2069   1.348       .  A
N2060      N2061   1.324       .  A
N2060      N2062   1.312       .  A
N2060     Mn2067   2.208       .  S
N2061      C2070   1.358       .  A
N2062      N2063   1.313       .  A
N2062     Mn2066   2.167       .  S
N2063      C2070   1.346       .  A
N2064      N2065   1.321       .  A
N2064     Mn2067   2.196       .  S
N2065      C2069   1.354       .  A
Mn2066    Cl2068   2.529       .  S
Mn2067    Cl2068   2.545       .  S
C2069      C2169   1.465       .  S
C2070      C3305   1.470       .  S
N2071      N2072   1.331       .  A
N2071      N2077   1.318       .  A
N2071     Mn2100   2.268       .  S
N2072      C2079   1.366       .  A
N2073      N2075   1.318       .  A
N2073      N2074   1.315       .  A
N2073     Mn2089   2.175       .  S
N2074      C2080   1.345       .  A
N2075      N2076   1.328       .  A
N2075     Mn2100   2.250       .  S
N2076      C2080   1.363       .  A
N2077      N2078   1.315       .  A
N2077     Mn2089   2.172       .  S
N2078      C2079   1.345       .  A
C2079      C4641   1.490       .  S
C2080      C3625   1.482       .  S
N2081      N2087   1.312       .  A
N2081      N2082   1.317       .  A
N2081     Mn2111   2.183       .  S
N2082      C2090   1.352       .  A
N2083      N2084   1.322       .  A
N2083      N2085   1.313       .  A
N2083     Mn2089   2.205       .  S
N2084      C2091   1.356       .  A
N2085      N2086   1.317       .  A
N2085     Mn2111   2.184       .  S
N2086      C2091   1.351       .  A
N2087      N2088   1.321       .  A
N2087     Mn2089   2.193       .  S
N2088      C2090   1.354       .  A
Mn2089    Cl2113   2.539       .  S
C2090      C3473   1.474       .  S
C2091      C2921   1.474       .  S
N2092      N2093   1.335       .  A
N2092      N2098   1.316       .  A
N2092     Mn2100   2.276       .  S
N2093      C2101   1.369       .  A
N2094      N2096   1.318       .  A
N2094      N2095   1.313       .  A
N2094     Mn2112   2.165       .  S
N2095      C2102   1.344       .  A
N2096      N2097   1.330       .  A
N2096     Mn2100   2.262       .  S
N2097      C2102   1.365       .  A
N2098      N2099   1.312       .  A
N2098     Mn2112   2.159       .  S
N2099      C2101   1.342       .  A
Mn2100    Cl2113   2.562       .  S
C2101      C3561   1.491       .  S
C2102      C4513   1.484       .  S
N2103      N2104   1.315       .  A
N2103      N2109   1.312       .  A
N2103     Mn2111   2.183       .  S
N2104      C2114   1.351       .  A
N2105      N2106   1.320       .  A
N2105      N2107   1.312       .  A
N2105     Mn2112   2.188       .  S
N2106      C2115   1.352       .  A
N2107      N2108   1.318       .  A
N2107     Mn2111   2.190       .  S
N2108      C2115   1.353       .  A
N2109      N2110   1.323       .  A
N2109     Mn2112   2.194       .  S
N2110      C2114   1.355       .  A
Mn2111    Cl2113   2.538       .  S
Mn2112    Cl2113   2.540       .  S
C2114      C3041   1.473       .  S
C2115      C2185   1.470       .  S
N2116      N2117   1.315       .  A
N2116      N2122   1.312       .  A
N2116     Mn2145   2.177       .  S
N2117      C2124   1.348       .  A
N2118      N2120   1.313       .  A
N2118      N2119   1.320       .  A
N2118     Mn2134   2.193       .  S
N2119      C2125   1.353       .  A
N2120      N2121   1.317       .  A
N2120     Mn2145   2.183       .  S
N2121      C2125   1.352       .  A
N2122      N2123   1.322       .  A
N2122     Mn2134   2.194       .  S
N2123      C2124   1.356       .  A
C2124      C2441   1.469       .  S
C2125      C3393   1.471       .  S
N2126      N2132   1.318       .  A
N2126      N2127   1.332       .  A
N2126     Mn2156   2.273       .  S
N2127      C2135   1.367       .  A
N2128      N2129   1.317       .  A
N2128      N2130   1.317       .  A
N2128     Mn2134   2.176       .  S
N2129      C2136   1.347       .  A
N2130      N2131   1.329       .  A
N2130     Mn2156   2.262       .  S
N2131      C2136   1.364       .  A
N2132      N2133   1.314       .  A
N2132     Mn2134   2.168       .  S
N2133      C2135   1.343       .  A
Mn2134    Cl2158   2.541       .  S
C2135      C3833   1.489       .  S
C2136      C4753   1.490       .  S
N2137      N2138   1.319       .  A
N2137      N2143   1.313       .  A
N2137     Mn2145   2.197       .  S
N2138      C2146   1.355       .  A
N2139      N2141   1.311       .  A
N2139      N2140   1.325       .  A
N2139     Mn2157   2.207       .  S
N2140      C2147   1.359       .  A
N2141      N2142   1.313       .  A
N2141     Mn2145   2.166       .  S
N2142      C2147   1.346       .  A
N2143      N2144   1.321       .  A
N2143     Mn2157   2.196       .  S
N2144      C2146   1.353       .  A
Mn2145    Cl2158   2.536       .  S
C2146      C3161   1.478       .  S
C2147      C2201   1.471       .  S
N2148      N2149   1.331       .  A
N2148      N2154   1.318       .  A
N2148     Mn2156   2.264       .  S
N2149      C2159   1.365       .  A
N2150      N2151   1.312       .  A
N2150      N2152   1.318       .  A
N2150     Mn2157   2.167       .  S
N2151      C2160   1.343       .  A
N2152      N2153   1.333       .  A
N2152     Mn2156   2.272       .  S
N2153      C2160   1.368       .  A
N2154      N2155   1.313       .  A
N2154     Mn2157   2.172       .  S
N2155      C2159   1.345       .  A
Mn2156    Cl2158   2.562       .  S
Mn2157    Cl2158   2.540       .  S
C2159      C4713   1.490       .  S
C2160      C4065   1.491       .  S
C2161      C2162   1.404       .  A
C2161      C2166   1.398   1_556  A
C2162      C2163   1.397   1_556  A
C2162      H2171   1.083       .  S
C2163      C2164   1.402   1_455  A
C2163      H2172   1.084   1_454  S
C2164      C2170   1.401       .  A
C2164      C2165   1.416   1_655  A
C2165      C2167   1.398       .  A
C2165      C2166   1.395       .  A
C2166      H2173   1.085       .  S
C2167      C2168   1.390       .  A
C2167      H2174   1.084       .  S
C2168      C2169   1.404   1_455  A
C2168      H2175   1.083       .  S
C2169      C2170   1.402       .  A
C2170      H2176   1.084       .  S
C2177      C2178   1.405   1_565  A
C2177      C2182   1.403       .  A
C2178      C2179   1.392       .  A
C2178      H2187   1.083       .  S
C2179      C2180   1.399       .  A
C2179      H2188   1.084       .  S
C2180      C2186   1.398   1_455  A
C2180      C2181   1.415       .  A
C2181      C2183   1.402   1_455  A
C2181      C2182   1.402   1_545  A
C2182      H2189   1.084       .  S
C2183      C2184   1.397       .  A
C2183      H2190   1.084   1_545  S
C2184      C2185   1.404       .  A
C2184      H2191   1.083       .  S
C2185      C2186   1.402       .  A
C2186      H2192   1.085       .  S
C2193      C2194   1.406       .  A
C2193      C2198   1.401   1_556  A
C2194      C2195   1.398   1_556  A
C2194      H2203   1.083       .  S
C2195      C2196   1.402       .  A
C2195      H2204   1.084   1_545  S
C2196      C2202   1.405   1_545  A
C2196      C2197   1.416       .  A
C2197      C2199   1.398       .  A
C2197      C2198   1.399       .  A
C2198      H2205   1.085       .  S
C2199      C2200   1.391       .  A
C2199      H2206   1.084       .  S
C2200      C2201   1.406   1_545  A
C2200      H2207   1.083       .  S
C2201      C2202   1.403       .  A
C2202      H2208   1.084       .  S
C2209      C2210   1.404       .  A
C2209      C2214   1.414       .  A
C2210      C2211   1.409       .  A
C2210      H2219   1.083       .  S
C2211      C2212   1.411       .  A
C2211      H2220   1.083       .  S
C2212      C2218   1.412       .  A
C2212      C2213   1.409       .  A
C2213      C2215   1.407       .  A
C2213      C2214   1.406       .  A
C2214      H2221   1.084       .  S
C2215      C2216   1.402       .  A
C2215      H2222   1.083       .  S
C2216      C2217   1.403       .  A
C2216      H2223   1.083       .  S
C2217      C2218   1.418       .  A
C2218      H2224   1.083       .  S
C2225      C2226   1.405       .  A
C2225      C2230   1.398       .  A
C2226      C2227   1.396       .  A
C2226      H2235   1.083       .  S
C2227      C2228   1.401       .  A
C2227      H2236   1.084       .  S
C2228      C2234   1.402       .  A
C2228      C2229   1.416       .  A
C2229      C2231   1.397       .  A
C2229      C2230   1.395       .  A
C2230      H2237   1.085       .  S
C2231      C2232   1.389       .  A
C2231      H2238   1.084       .  S
C2232      C2233   1.404       .  A
C2232      H2239   1.084       .  S
C2233      C2234   1.402       .  A
C2234      H2240   1.084       .  S
C2241      C2242   1.403       .  A
C2241      C2246   1.416       .  A
C2242      C2243   1.407       .  A
C2242      H2251   1.083       .  S
C2243      C2244   1.410       .  A
C2243      H2252   1.083       .  S
C2244      C2250   1.410       .  A
C2244      C2245   1.409       .  A
C2245      C2247   1.408       .  A
C2245      C2246   1.407       .  A
C2246      H2253   1.084       .  S
C2247      C2248   1.403       .  A
C2247      H2254   1.083       .  S
C2248      C2249   1.403       .  A
C2248      H2255   1.083       .  S
C2249      C2250   1.416       .  A
C2250      H2256   1.084       .  S
C2257      C2258   1.404       .  A
C2257      C2262   1.401       .  A
C2258      C2259   1.400       .  A
C2258      H2267   1.083       .  S
C2259      C2260   1.405       .  A
C2259      H2268   1.084       .  S
C2260      C2266   1.403       .  A
C2260      C2261   1.414       .  A
C2261      C2263   1.399       .  A
C2261      C2262   1.394       .  A
C2262      H2269   1.085       .  S
C2263      C2264   1.391       .  A
C2263      H2270   1.084       .  S
C2264      C2265   1.403       .  A
C2264      H2271   1.083       .  S
C2265      C2266   1.407       .  A
C2266      H2272   1.084       .  S
C2273      C2274   1.402       .  A
C2273      C2278   1.410       .  A
C2274      C2275   1.404       .  A
C2274      H2283   1.083       .  S
C2275      C2276   1.409       .  A
C2275      H2284   1.083       .  S
C2276      C2282   1.403       .  A
C2276      C2277   1.409       .  A
C2277      C2279   1.405       .  A
C2277      C2278   1.397       .  A
C2278      H2285   1.084       .  S
C2279      C2280   1.398       .  A
C2279      H2286   1.084       .  S
C2280      C2281   1.401       .  A
C2280      H2287   1.083       .  S
C2281      C2282   1.414       .  A
C2282      H2288   1.084       .  S
C2289      C2290   1.405       .  A
C2289      C2294   1.403       .  A
C2290      C2291   1.399       .  A
C2290      H2299   1.083       .  S
C2291      C2292   1.403       .  A
C2291      H2300   1.084       .  S
C2292      C2298   1.406       .  A
C2292      C2293   1.415       .  A
C2293      C2295   1.399       .  A
C2293      C2294   1.400       .  A
C2294      H2301   1.085       .  S
C2295      C2296   1.393       .  A
C2295      H2302   1.084       .  S
C2296      C2297   1.405       .  A
C2296      H2303   1.083       .  S
C2297      C2298   1.405       .  A
C2298      H2304   1.084       .  S
C2305      C2306   1.406       .  A
C2305      C2310   1.398       .  A
C2306      C2307   1.398       .  A
C2306      H2315   1.083       .  S
C2307      C2308   1.402       .  A
C2307      H2316   1.084       .  S
C2308      C2314   1.403       .  A
C2308      C2309   1.416       .  A
C2309      C2311   1.397       .  A
C2309      C2310   1.396       .  A
C2310      H2317   1.085       .  S
C2311      C2312   1.389       .  A
C2311      H2318   1.085       .  S
C2312      C2313   1.403       .  A
C2312      H2319   1.084       .  S
C2313      C2314   1.403       .  A
C2314      H2320   1.084       .  S
C2321      C2322   1.406       .  A
C2321      C2326   1.403       .  A
C2322      C2323   1.397       .  A
C2322      H2331   1.083       .  S
C2323      C2324   1.401       .  A
C2323      H2332   1.084       .  S
C2324      C2330   1.403       .  A
C2324      C2325   1.415       .  A
C2325      C2327   1.401       .  A
C2325      C2326   1.402       .  A
C2326      H2333   1.085       .  S
C2327      C2328   1.396       .  A
C2327      H2334   1.084       .  S
C2328      C2329   1.404       .  A
C2328      H2335   1.083       .  S
C2329      C2330   1.404       .  A
C2330      H2336   1.085       .  S
C2337      C2338   1.405       .  A
C2337      C2342   1.403       .  A
C2338      C2339   1.393       .  A
C2338      H2347   1.083       .  S
C2339      C2340   1.400       .  A
C2339      H2348   1.084       .  S
C2340      C2346   1.397       .  A
C2340      C2341   1.415       .  A
C2341      C2343   1.402       .  A
C2341      C2342   1.401       .  A
C2342      H2349   1.085       .  S
C2343      C2344   1.397       .  A
C2343      H2350   1.084       .  S
C2344      C2345   1.403       .  A
C2344      H2351   1.083       .  S
C2345      C2346   1.402       .  A
C2346      H2352   1.085       .  S
C2353      C2354   1.406       .  A
C2353      C2358   1.400       .  A
C2354      C2355   1.400       .  A
C2354      H2363   1.083       .  S
C2355      C2356   1.403       .  A
C2355      H2364   1.084       .  S
C2356      C2362   1.405       .  A
C2356      C2357   1.415       .  A
C2357      C2359   1.398       .  A
C2357      C2358   1.398       .  A
C2358      H2365   1.085       .  S
C2359      C2360   1.391       .  A
C2359      H2366   1.085       .  S
C2360      C2361   1.405       .  A
C2360      H2367   1.083       .  S
C2361      C2362   1.406       .  A
C2362      H2368   1.084       .  S
C2369      C2370   1.405       .  A
C2369      C2374   1.402       .  A
C2370      C2371   1.402       .  A
C2370      H2379   1.083       .  S
C2371      C2372   1.405       .  A
C2371      H2380   1.084       .  S
C2372      C2378   1.409       .  A
C2372      C2373   1.415       .  A
C2373      C2375   1.398       .  A
C2373      C2374   1.399       .  A
C2374      H2381   1.085       .  S
C2375      C2376   1.392       .  A
C2375      H2382   1.085       .  S
C2376      C2377   1.405       .  A
C2376      H2383   1.083       .  S
C2377      C2378   1.408       .  A
C2378      H2384   1.084       .  S
C2385      C2386   1.402       .  A
C2385      C2390   1.404       .  A
C2386      C2387   1.391       .  A
C2386      H2395   1.083       .  S
C2387      C2388   1.399       .  A
C2387      H2396   1.084       .  S
C2388      C2394   1.393       .  A
C2388      C2389   1.414       .  A
C2389      C2391   1.403       .  A
C2389      C2390   1.399       .  A
C2390      H2397   1.085       .  S
C2391      C2392   1.397       .  A
C2391      H2398   1.084       .  S
C2392      C2393   1.404       .  A
C2392      H2399   1.083       .  S
C2393      C2394   1.400       .  A
C2394      H2400   1.086       .  S
C2401      C2402   1.405       .  A
C2401      C2406   1.402       .  A
C2402      C2403   1.395       .  A
C2402      H2411   1.083       .  S
C2403      C2404   1.400       .  A
C2403      H2412   1.084       .  S
C2404      C2410   1.401       .  A
C2404      C2405   1.416       .  A
C2405      C2407   1.401       .  A
C2405      C2406   1.401       .  A
C2406      H2413   1.085       .  S
C2407      C2408   1.396       .  A
C2407      H2414   1.084       .  S
C2408      C2409   1.404       .  A
C2408      H2415   1.083       .  S
C2409      C2410   1.402       .  A
C2410      H2416   1.085       .  S
C2417      C2418   1.401       .  A
C2417      C2422   1.416       .  A
C2418      C2419   1.402       .  A
C2418      H2427   1.083       .  S
C2419      C2420   1.408       .  A
C2419      H2428   1.083       .  S
C2420      C2426   1.401       .  A
C2420      C2421   1.407       .  A
C2421      C2423   1.410       .  A
C2421      C2422   1.403       .  A
C2422      H2429   1.083       .  S
C2423      C2424   1.404       .  A
C2423      H2430   1.083       .  S
C2424      C2425   1.401       .  A
C2424      H2431   1.083       .  S
C2425      C2426   1.414       .  A
C2426      H2432   1.084       .  S
C2433      C2434   1.403       .  A
C2433      C2438   1.402       .  A
C2434      C2435   1.398       .  A
C2434      H2443   1.083       .  S
C2435      C2436   1.402       .  A
C2435      H2444   1.084   1_545  S
C2436      C2442   1.402   1_545  A
C2436      C2437   1.415       .  A
C2437      C2439   1.399       .  A
C2437      C2438   1.396       .  A
C2438      H2445   1.085       .  S
C2439      C2440   1.392       .  A
C2439      H2446   1.084       .  S
C2440      C2441   1.405   1_545  A
C2440      H2447   1.083       .  S
C2441      C2442   1.403       .  A
C2442      H2448   1.084       .  S
C2449      C2450   1.404       .  A
C2449      C2454   1.402       .  A
C2450      C2451   1.392       .  A
C2450      H2459   1.083       .  S
C2451      C2452   1.399       .  A
C2451      H2460   1.084       .  S
C2452      C2458   1.397       .  A
C2452      C2453   1.415       .  A
C2453      C2455   1.401       .  A
C2453      C2454   1.399       .  A
C2454      H2461   1.085       .  S
C2455      C2456   1.395   1_554  A
C2455      H2462   1.084       .  S
C2456      C2457   1.405       .  A
C2456      H2463   1.083       .  S
C2457      C2458   1.400   1_556  A
C2458      H2464   1.085       .  S
C2465      C2466   1.402       .  A
C2465      C2470   1.416       .  A
C2466      C2467   1.399       .  A
C2466      H2475   1.083       .  S
C2467      C2468   1.405       .  A
C2467      H2476   1.084       .  S
C2468      C2474   1.401       .  A
C2468      C2469   1.409       .  A
C2469      C2471   1.411       .  A
C2469      C2470   1.410       .  A
C2470      H2477   1.084       .  S
C2471      C2472   1.408       .  A
C2471      H2478   1.083       .  S
C2472      C2473   1.403       .  A
C2472      H2479   1.083       .  S
C2473      C2474   1.412       .  A
C2474      H2480   1.084       .  S
C2481      C2482   1.403       .  A
C2481      C2486   1.402       .  A
C2482      C2483   1.397       .  A
C2482      H2491   1.084       .  S
C2483      C2484   1.403       .  A
C2483      H2492   1.081       .  S
C2484      C2490   1.401   1_554  A
C2484      C2485   1.413       .  A
C2485      C2487   1.401       .  A
C2485      C2486   1.397       .  A
C2486      H2493   1.082       .  S
C2487      C2488   1.393       .  A
C2487      H2494   1.081       .  S
C2488      C2489   1.403       .  A
C2488      H2495   1.085       .  S
C2489      C2490   1.404   1_554  A
C2490      H2496   1.082       .  S
C2497      C2498   1.402       .  A
C2497      C2502   1.412       .  A
C2498      C2499   1.403       .  A
C2498      H2507   1.083       .  S
C2499      C2500   1.407       .  A
C2499      H2508   1.083       .  S
C2500      C2506   1.405       .  A
C2500      C2501   1.410       .  A
C2501      C2503   1.407       .  A
C2501      C2502   1.404       .  A
C2502      H2509   1.084       .  S
C2503      C2504   1.402       .  A
C2503      H2510   1.083       .  S
C2504      C2505   1.402       .  A
C2504      H2511   1.083       .  S
C2505      C2506   1.413       .  A
C2506      H2512   1.084       .  S
C2513      C2514   1.402       .  A
C2513      C2518   1.412       .  A
C2514      C2515   1.406       .  A
C2514      H2523   1.083       .  S
C2515      C2516   1.410       .  A
C2515      H2524   1.083       .  S
C2516      C2522   1.405       .  A
C2516      C2517   1.408       .  A
C2517      C2519   1.406       .  A
C2517      C2518   1.399       .  A
C2518      H2525   1.084       .  S
C2519      C2520   1.399       .  A
C2519      H2526   1.083       .  S
C2520      C2521   1.400       .  A
C2520      H2527   1.083       .  S
C2521      C2522   1.416       .  A
C2522      H2528   1.084       .  S
C2529      C2530   1.406       .  A
C2529      C2534   1.399       .  A
C2530      C2531   1.399       .  A
C2530      H2539   1.083       .  S
C2531      C2532   1.403       .  A
C2531      H2540   1.084       .  S
C2532      C2538   1.406   1_545  A
C2532      C2533   1.416       .  A
C2533      C2535   1.398       .  A
C2533      C2534   1.398       .  A
C2534      H2541   1.085       .  S
C2535      C2536   1.391       .  A
C2535      H2542   1.084       .  S
C2536      C2537   1.404   1_545  A
C2536      H2543   1.083       .  S
C2537      C2538   1.405       .  A
C2538      H2544   1.084       .  S
C2545      C2546   1.405       .  A
C2545      C2550   1.404       .  A
C2546      C2547   1.389       .  A
C2546      H2555   1.083       .  S
C2547      C2548   1.397       .  A
C2547      H2556   1.084       .  S
C2548      C2554   1.397       .  A
C2548      C2549   1.416       .  A
C2549      C2551   1.402       .  A
C2549      C2550   1.406       .  A
C2550      H2557   1.084       .  S
C2551      C2552   1.399       .  A
C2551      H2558   1.084       .  S
C2552      C2553   1.406       .  A
C2552      H2559   1.083       .  S
C2553      C2554   1.399       .  A
C2554      H2560   1.085       .  S
C2561      C2562   1.405       .  A
C2561      C2566   1.403       .  A
C2562      C2563   1.399       .  A
C2562      H2571   1.083       .  S
C2563      C2564   1.404       .  A
C2563      H2572   1.084       .  S
C2564      C2570   1.404       .  A
C2564      C2565   1.414       .  A
C2565      C2567   1.400       .  A
C2565      C2566   1.398       .  A
C2566      H2573   1.085       .  S
C2567      C2568   1.393       .  A
C2567      H2574   1.084       .  S
C2568      C2569   1.404       .  A
C2568      H2575   1.083       .  S
C2569      C2570   1.406       .  A
C2570      H2576   1.084       .  S
C2577      C2578   1.402       .  A
C2577      C2582   1.416       .  A
C2578      C2579   1.400       .  A
C2578      H2587   1.083       .  S
C2579      C2580   1.406       .  A
C2579      H2588   1.084       .  S
C2580      C2586   1.403       .  A
C2580      C2581   1.409       .  A
C2581      C2583   1.410       .  A
C2581      C2582   1.410       .  A
C2582      H2589   1.084       .  S
C2583      C2584   1.407       .  A
C2583      H2590   1.083       .  S
C2584      C2585   1.403       .  A
C2584      H2591   1.083       .  S
C2585      C2586   1.414       .  A
C2586      H2592   1.084       .  S
C2593      C2594   1.404       .  A
C2593      C2598   1.399       .  A
C2594      C2595   1.399       .  A
C2594      H2603   1.083       .  S
C2595      C2596   1.403       .  A
C2595      H2604   1.084       .  S
C2596      C2602   1.403       .  A
C2596      C2597   1.415       .  A
C2597      C2599   1.398       .  A
C2597      C2598   1.395       .  A
C2598      H2605   1.085       .  S
C2599      C2600   1.390       .  A
C2599      H2606   1.084       .  S
C2600      C2601   1.404       .  A
C2600      H2607   1.083       .  S
C2601      C2602   1.404       .  A
C2602      H2608   1.084       .  S
C2609      C2610   1.401       .  A
C2609      C2614   1.414       .  A
C2610      C2611   1.402       .  A
C2610      H2619   1.083       .  S
C2611      C2612   1.408       .  A
C2611      H2620   1.083       .  S
C2612      C2618   1.400       .  A
C2612      C2613   1.408       .  A
C2613      C2615   1.409       .  A
C2613      C2614   1.401       .  A
C2614      H2621   1.084       .  S
C2615      C2616   1.403       .  A
C2615      H2622   1.083       .  S
C2616      C2617   1.400       .  A
C2616      H2623   1.083       .  S
C2617      C2618   1.414       .  A
C2618      H2624   1.084       .  S
C2625      C2626   1.405       .  A
C2625      C2630   1.401       .  A
C2626      C2627   1.396       .  A
C2626      H2635   1.083       .  S
C2627      C2628   1.401       .  A
C2627      H2636   1.084       .  S
C2628      C2634   1.402       .  A
C2628      C2629   1.416       .  A
C2629      C2631   1.399       .  A
C2629      C2630   1.398       .  A
C2630      H2637   1.085       .  S
C2631      C2632   1.392       .  A
C2631      H2638   1.084       .  S
C2632      C2633   1.406       .  A
C2632      H2639   1.083       .  S
C2633      C2634   1.402       .  A
C2634      H2640   1.084       .  S
C2641      C2642   1.406       .  A
C2641      C2646   1.401       .  A
C2642      C2643   1.398       .  A
C2642      H2651   1.083       .  S
C2643      C2644   1.402       .  A
C2643      H2652   1.084       .  S
C2644      C2650   1.405       .  A
C2644      C2645   1.416       .  A
C2645      C2647   1.398       .  A
C2645      C2646   1.399       .  A
C2646      H2653   1.085       .  S
C2647      C2648   1.391       .  A
C2647      H2654   1.084       .  S
C2648      C2649   1.406       .  A
C2648      H2655   1.083       .  S
C2649      C2650   1.404       .  A
C2650      H2656   1.084       .  S
C2657      C2658   1.401       .  A
C2657      C2662   1.414       .  A
C2658      C2659   1.403       .  A
C2658      H2667   1.083       .  S
C2659      C2660   1.409       .  A
C2659      H2668   1.083       .  S
C2660      C2666   1.402       .  A
C2660      C2661   1.407       .  A
C2661      C2663   1.409       .  A
C2661      C2662   1.403       .  A
C2662      H2669   1.084       .  S
C2663      C2664   1.404       .  A
C2663      H2670   1.083       .  S
C2664      C2665   1.401       .  A
C2664      H2671   1.083       .  S
C2665      C2666   1.416       .  A
C2666      H2672   1.083       .  S
C2673      C2674   1.406       .  A
C2673      C2678   1.401       .  A
C2674      C2675   1.400       .  A
C2674      H2683   1.083       .  S
C2675      C2676   1.403       .  A
C2675      H2684   1.084       .  S
C2676      C2682   1.407       .  A
C2676      C2677   1.415       .  A
C2677      C2679   1.397       .  A
C2677      C2678   1.398       .  A
C2678      H2685   1.085       .  S
C2679      C2680   1.391       .  A
C2679      H2686   1.084       .  S
C2680      C2681   1.407       .  A
C2680      H2687   1.083       .  S
C2681      C2682   1.406       .  A
C2682      H2688   1.084       .  S
C2689      C2690   1.403       .  A
C2689      C2694   1.414       .  A
C2690      C2691   1.406       .  A
C2690      H2699   1.083       .  S
C2691      C2692   1.409       .  A
C2691      H2700   1.084       .  S
C2692      C2698   1.408       .  A
C2692      C2693   1.409       .  A
C2693      C2695   1.408       .  A
C2693      C2694   1.407       .  A
C2694      H2701   1.084       .  S
C2695      C2696   1.404       .  A
C2695      H2702   1.084       .  S
C2696      C2697   1.403       .  A
C2696      H2703   1.083       .  S
C2697      C2698   1.416       .  A
C2698      H2704   1.084       .  S
C2705      C2706   1.402       .  A
C2705      C2710   1.417       .  A
C2706      C2707   1.407       .  A
C2706      H2715   1.083       .  S
C2707      C2708   1.410       .  A
C2707      H2716   1.083       .  S
C2708      C2714   1.407       .  A
C2708      C2709   1.407       .  A
C2709      C2711   1.409       .  A
C2709      C2710   1.405       .  A
C2710      H2717   1.083       .  S
C2711      C2712   1.404       .  A
C2711      H2718   1.083       .  S
C2712      C2713   1.402       .  A
C2712      H2719   1.083       .  S
C2713      C2714   1.417       .  A
C2714      H2720   1.083       .  S
C2721      C2722   1.404       .  A
C2721      C2726   1.404       .  A
C2722      C2723   1.392       .  A
C2722      H2731   1.083       .  S
C2723      C2724   1.399       .  A
C2723      H2732   1.084       .  S
C2724      C2730   1.397       .  A
C2724      C2725   1.415       .  A
C2725      C2727   1.403       .  A
C2725      C2726   1.403       .  A
C2726      H2733   1.085       .  S
C2727      C2728   1.399       .  A
C2727      H2734   1.084       .  S
C2728      C2729   1.404       .  A
C2728      H2735   1.083       .  S
C2729      C2730   1.400       .  A
C2730      H2736   1.086       .  S
C2737      C2738   1.405       .  A
C2737      C2742   1.402       .  A
C2738      C2739   1.398       .  A
C2738      H2747   1.083       .  S
C2739      C2740   1.402       .  A
C2739      H2748   1.084       .  S
C2740      C2746   1.405       .  A
C2740      C2741   1.416       .  A
C2741      C2743   1.398       .  A
C2741      C2742   1.399       .  A
C2742      H2749   1.085       .  S
C2743      C2744   1.391       .  A
C2743      H2750   1.084       .  S
C2744      C2745   1.407       .  A
C2744      H2751   1.083       .  S
C2745      C2746   1.403       .  A
C2746      H2752   1.084       .  S
C2753      C2754   1.406       .  A
C2753      C2758   1.405       .  A
C2754      C2755   1.389       .  A
C2754      H2763   1.083       .  S
C2755      C2756   1.396       .  A
C2755      H2764   1.085       .  S
C2756      C2762   1.397       .  A
C2756      C2757   1.416       .  A
C2757      C2759   1.403       .  A
C2757      C2758   1.407       .  A
C2758      H2765   1.084       .  S
C2759      C2760   1.400       .  A
C2759      H2766   1.084       .  S
C2760      C2761   1.407       .  A
C2760      H2767   1.083       .  S
C2761      C2762   1.399       .  A
C2762      H2768   1.085       .  S
C2769      C2770   1.405       .  A
C2769      C2774   1.402       .  A
C2770      C2771   1.398       .  A
C2770      H2779   1.083       .  S
C2771      C2772   1.402       .  A
C2771      H2780   1.084       .  S
C2772      C2778   1.404       .  A
C2772      C2773   1.415       .  A
C2773      C2775   1.400       .  A
C2773      C2774   1.400       .  A
C2774      H2781   1.085       .  S
C2775      C2776   1.393       .  A
C2775      H2782   1.084       .  S
C2776      C2777   1.404       .  A
C2776      H2783   1.083       .  S
C2777      C2778   1.404       .  A
C2778      H2784   1.084       .  S
C2785      C2786   1.404       .  A
C2785      C2790   1.401       .  A
C2786      C2787   1.399       .  A
C2786      H2795   1.083       .  S
C2787      C2788   1.403       .  A
C2787      H2796   1.084       .  S
C2788      C2794   1.404       .  A
C2788      C2789   1.415       .  A
C2789      C2791   1.398       .  A
C2789      C2790   1.395       .  A
C2790      H2797   1.085       .  S
C2791      C2792   1.390       .  A
C2791      H2798   1.084       .  S
C2792      C2793   1.404       .  A
C2792      H2799   1.083       .  S
C2793      C2794   1.403       .  A
C2794      H2800   1.084       .  S
C2801      C2802   1.402       .  A
C2801      C2806   1.415       .  A
C2802      C2803   1.401       .  A
C2802      H2811   1.083       .  S
C2803      C2804   1.406       .  A
C2803      H2812   1.083       .  S
C2804      C2810   1.402       .  A
C2804      C2805   1.409       .  A
C2805      C2807   1.409       .  A
C2805      C2806   1.406       .  A
C2806      H2813   1.084       .  S
C2807      C2808   1.405       .  A
C2807      H2814   1.083       .  S
C2808      C2809   1.402       .  A
C2808      H2815   1.083       .  S
C2809      C2810   1.413       .  A
C2810      H2816   1.084       .  S
C2817      C2818   1.401       .  A
C2817      C2822   1.416       .  A
C2818      C2819   1.403       .  A
C2818      H2827   1.083       .  S
C2819      C2820   1.409       .  A
C2819      H2828   1.083       .  S
C2820      C2826   1.403       .  A
C2820      C2821   1.407       .  A
C2821      C2823   1.409       .  A
C2821      C2822   1.404       .  A
C2822      H2829   1.083       .  S
C2823      C2824   1.404       .  A
C2823      H2830   1.083       .  S
C2824      C2825   1.401       .  A
C2824      H2831   1.083       .  S
C2825      C2826   1.415       .  A
C2826      H2832   1.083       .  S
C2833      C2834   1.406       .  A
C2833      C2838   1.401       .  A
C2834      C2835   1.391       .  A
C2834      H2843   1.082       .  S
C2835      C2836   1.397       .  A
C2835      H2844   1.084       .  S
C2836      C2842   1.400       .  A
C2836      C2837   1.417       .  A
C2837      C2839   1.399       .  A
C2837      C2838   1.404       .  A
C2838      H2845   1.084       .  S
C2839      C2840   1.395   1_554  A
C2839      H2846   1.084       .  S
C2840      C2841   1.407       .  A
C2840      H2847   1.083       .  S
C2841      C2842   1.400   1_556  A
C2842      H2848   1.084       .  S
C2849      C2850   1.403       .  A
C2849      C2854   1.400       .  A
C2850      C2851   1.390       .  A
C2850      H2859   1.082       .  S
C2851      C2852   1.398       .  A
C2851      H2860   1.084       .  S
C2852      C2858   1.394       .  A
C2852      C2853   1.416       .  A
C2853      C2855   1.400   1_455  A
C2853      C2854   1.397       .  A
C2854      H2861   1.084       .  S
C2855      C2856   1.394       .  A
C2855      H2862   1.084       .  S
C2856      C2857   1.404       .  A
C2856      H2863   1.083       .  S
C2857      C2858   1.399   1_655  A
C2858      H2864   1.085       .  S
C2865      C2866   1.402       .  A
C2865      C2870   1.415       .  A
C2866      C2867   1.405       .  A
C2866      H2875   1.083       .  S
C2867      C2868   1.409       .  A
C2867      H2876   1.083       .  S
C2868      C2874   1.405       .  A
C2868      C2869   1.408       .  A
C2869      C2871   1.408       .  A
C2869      C2870   1.403       .  A
C2870      H2877   1.084       .  S
C2871      C2872   1.402       .  A
C2871      H2878   1.084       .  S
C2872      C2873   1.401       .  A
C2872      H2879   1.083       .  S
C2873      C2874   1.415       .  A
C2874      H2880   1.084       .  S
C2881      C2882   1.406       .  A
C2881      C2886   1.401       .  A
C2882      C2883   1.396       .  A
C2882      H2891   1.083       .  S
C2883      C2884   1.401       .  A
C2883      H2892   1.084       .  S
C2884      C2890   1.403       .  A
C2884      C2885   1.416       .  A
C2885      C2887   1.398       .  A
C2885      C2886   1.399       .  A
C2886      H2893   1.084       .  S
C2887      C2888   1.391       .  A
C2887      H2894   1.084       .  S
C2888      C2889   1.407       .  A
C2888      H2895   1.083       .  S
C2889      C2890   1.402       .  A
C2890      H2896   1.084       .  S
C2897      C2898   1.403       .  A
C2897      C2902   1.413       .  A
C2898      C2899   1.403       .  A
C2898      H2907   1.083       .  S
C2899      C2900   1.408       .  A
C2899      H2908   1.083       .  S
C2900      C2906   1.405       .  A
C2900      C2901   1.409       .  A
C2901      C2903   1.408       .  A
C2901      C2902   1.405       .  A
C2902      H2909   1.084       .  S
C2903      C2904   1.403       .  A
C2903      H2910   1.083       .  S
C2904      C2905   1.401       .  A
C2904      H2911   1.083       .  S
C2905      C2906   1.416       .  A
C2906      H2912   1.083       .  S
C2913      C2914   1.404       .  A
C2913      C2918   1.404       .  A
C2914      C2915   1.398       .  A
C2914      H2923   1.083       .  S
C2915      C2916   1.403       .  A
C2915      H2924   1.084   1_455  S
C2916      C2922   1.403   1_455  A
C2916      C2917   1.414       .  A
C2917      C2919   1.400       .  A
C2917      C2918   1.400       .  A
C2918      H2925   1.085       .  S
C2919      C2920   1.394       .  A
C2919      H2926   1.084       .  S
C2920      C2921   1.405   1_455  A
C2920      H2927   1.083       .  S
C2921      C2922   1.404       .  A
C2922      H2928   1.085       .  S
C2929      C2930   1.401       .  A
C2929      C2934   1.416       .  A
C2930      C2931   1.400       .  A
C2930      H2939   1.083       .  S
C2931      C2932   1.407       .  A
C2931      H2940   1.083       .  S
C2932      C2938   1.402       .  A
C2932      C2933   1.408       .  A
C2933      C2935   1.411       .  A
C2933      C2934   1.408       .  A
C2934      H2941   1.084       .  S
C2935      C2936   1.407       .  A
C2935      H2942   1.083       .  S
C2936      C2937   1.402       .  A
C2936      H2943   1.083       .  S
C2937      C2938   1.415       .  A
C2938      H2944   1.083       .  S
C2945      C2946   1.405       .  A
C2945      C2950   1.400       .  A
C2946      C2947   1.398       .  A
C2946      H2955   1.083       .  S
C2947      C2948   1.403       .  A
C2947      H2956   1.084       .  S
C2948      C2954   1.404       .  A
C2948      C2949   1.416       .  A
C2949      C2951   1.398       .  A
C2949      C2950   1.397       .  A
C2950      H2957   1.085       .  S
C2951      C2952   1.391       .  A
C2951      H2958   1.084       .  S
C2952      C2953   1.405       .  A
C2952      H2959   1.083       .  S
C2953      C2954   1.404       .  A
C2954      H2960   1.084       .  S
C2961      C2962   1.403       .  A
C2961      C2966   1.414       .  A
C2962      C2963   1.403       .  A
C2962      H2971   1.083       .  S
C2963      C2964   1.407       .  A
C2963      H2972   1.083       .  S
C2964      C2970   1.406       .  A
C2964      C2965   1.410       .  A
C2965      C2967   1.407       .  A
C2965      C2966   1.407       .  A
C2966      H2973   1.084       .  S
C2967      C2968   1.403       .  A
C2967      H2974   1.083       .  S
C2968      C2969   1.403       .  A
C2968      H2975   1.083       .  S
C2969      C2970   1.412       .  A
C2970      H2976   1.084       .  S
C2977      C2978   1.405   1_554  A
C2977      C2982   1.400       .  A
C2978      C2979   1.394   1_556  A
C2978      H2987   1.083       .  S
C2979      C2980   1.399       .  A
C2979      H2988   1.084       .  S
C2980      C2986   1.401       .  A
C2980      C2981   1.417       .  A
C2981      C2983   1.398       .  A
C2981      C2982   1.400       .  A
C2982      H2989   1.085       .  S
C2983      C2984   1.393       .  A
C2983      H2990   1.084       .  S
C2984      C2985   1.406       .  A
C2984      H2991   1.083       .  S
C2985      C2986   1.400       .  A
C2986      H2992   1.085       .  S
C2993      C2994   1.406       .  A
C2993      C2998   1.400       .  A
C2994      C2995   1.399       .  A
C2994      H3003   1.083       .  S
C2995      C2996   1.403       .  A
C2995      H3004   1.084       .  S
C2996      C3002   1.404       .  A
C2996      C2997   1.415       .  A
C2997      C2999   1.398       .  A
C2997      C2998   1.397       .  A
C2998      H3005   1.085       .  S
C2999      C3000   1.391       .  A
C2999      H3006   1.084       .  S
C3000      C3001   1.403       .  A
C3000      H3007   1.083       .  S
C3001      C3002   1.405       .  A
C3002      H3008   1.084       .  S
C3009      C3010   1.406       .  A
C3009      C3014   1.401       .  A
C3010      C3011   1.397       .  A
C3010      H3019   1.083       .  S
C3011      C3012   1.401       .  A
C3011      H3020   1.084   1_545  S
C3012      C3018   1.402   1_545  A
C3012      C3013   1.415       .  A
C3013      C3015   1.399       .  A
C3013      C3014   1.398       .  A
C3014      H3021   1.085       .  S
C3015      C3016   1.393       .  A
C3015      H3022   1.084       .  S
C3016      C3017   1.405   1_545  A
C3016      H3023   1.083       .  S
C3017      C3018   1.403       .  A
C3018      H3024   1.085       .  S
C3025      C3026   1.404       .  A
C3025      C3030   1.402       .  A
C3026      C3027   1.391       .  A
C3026      H3035   1.083       .  S
C3027      C3028   1.399       .  A
C3027      H3036   1.084       .  S
C3028      C3034   1.396       .  A
C3028      C3029   1.416       .  A
C3029      C3031   1.401       .  A
C3029      C3030   1.400       .  A
C3030      H3037   1.085       .  S
C3031      C3032   1.396       .  A
C3031      H3038   1.084       .  S
C3032      C3033   1.405       .  A
C3032      H3039   1.083       .  S
C3033      C3034   1.400       .  A
C3034      H3040   1.085       .  S
C3041      C3042   1.405       .  A
C3041      C3046   1.401   1_655  A
C3042      C3043   1.402       .  A
C3042      H3051   1.083       .  S
C3043      C3044   1.405   1_655  A
C3043      H3052   1.084       .  S
C3044      C3050   1.406       .  A
C3044      C3045   1.415       .  A
C3045      C3047   1.398       .  A
C3045      C3046   1.395       .  A
C3046      H3053   1.085       .  S
C3047      C3048   1.390       .  A
C3047      H3054   1.085       .  S
C3048      C3049   1.405       .  A
C3048      H3055   1.083       .  S
C3049      C3050   1.406       .  A
C3050      H3056   1.084       .  S
C3057      C3058   1.402       .  A
C3057      C3062   1.404       .  A
C3058      C3059   1.390       .  A
C3058      H3067   1.083       .  S
C3059      C3060   1.399       .  A
C3059      H3068   1.084       .  S
C3060      C3066   1.392       .  A
C3060      C3061   1.415       .  A
C3061      C3063   1.404       .  A
C3061      C3062   1.399       .  A
C3062      H3069   1.084       .  S
C3063      C3064   1.398       .  A
C3063      H3070   1.083       .  S
C3064      C3065   1.403       .  A
C3064      H3071   1.083       .  S
C3065      C3066   1.398       .  A
C3066      H3072   1.086       .  S
C3073      C3074   1.405       .  A
C3073      C3078   1.399       .  A
C3074      C3075   1.397       .  A
C3074      H3083   1.083       .  S
C3075      C3076   1.402       .  A
C3075      H3084   1.084       .  S
C3076      C3082   1.402       .  A
C3076      C3077   1.416       .  A
C3077      C3079   1.398       .  A
C3077      C3078   1.397       .  A
C3078      H3085   1.085       .  S
C3079      C3080   1.391       .  A
C3079      H3086   1.084       .  S
C3080      C3081   1.405       .  A
C3080      H3087   1.083       .  S
C3081      C3082   1.403       .  A
C3082      H3088   1.084       .  S
C3089      C3090   1.404       .  A
C3089      C3094   1.403       .  A
C3090      C3091   1.389       .  A
C3090      H3099   1.083       .  S
C3091      C3092   1.397       .  A
C3091      H3100   1.084       .  S
C3092      C3098   1.394       .  A
C3092      C3093   1.415       .  A
C3093      C3095   1.403       .  A
C3093      C3094   1.402       .  A
C3094      H3101   1.084       .  S
C3095      C3096   1.398       .  A
C3095      H3102   1.084       .  S
C3096      C3097   1.405       .  A
C3096      H3103   1.083       .  S
C3097      C3098   1.399       .  A
C3098      H3104   1.085       .  S
C3105      C3106   1.404       .  A
C3105      C3110   1.401       .  A
C3106      C3107   1.396       .  A
C3106      H3115   1.083       .  S
C3107      C3108   1.401       .  A
C3107      H3116   1.084       .  S
C3108      C3114   1.401       .  A
C3108      C3109   1.416       .  A
C3109      C3111   1.398       .  A
C3109      C3110   1.397       .  A
C3110      H3117   1.085       .  S
C3111      C3112   1.391       .  A
C3111      H3118   1.084       .  S
C3112      C3113   1.406       .  A
C3112      H3119   1.083       .  S
C3113      C3114   1.401       .  A
C3114      H3120   1.085       .  S
C3121      C3122   1.405       .  A
C3121      C3126   1.404       .  A
C3122      C3123   1.392       .  A
C3122      H3131   1.083       .  S
C3123      C3124   1.399       .  A
C3123      H3132   1.084       .  S
C3124      C3130   1.396       .  A
C3124      C3125   1.415       .  A
C3125      C3127   1.403       .  A
C3125      C3126   1.402       .  A
C3126      H3133   1.085       .  S
C3127      C3128   1.398       .  A
C3127      H3134   1.084       .  S
C3128      C3129   1.404       .  A
C3128      H3135   1.083       .  S
C3129      C3130   1.401       .  A
C3130      H3136   1.085       .  S
C3137      C3138   1.402   1_556  A
C3137      C3142   1.405       .  A
C3138      C3139   1.391       .  A
C3138      H3147   1.083       .  S
C3139      C3140   1.399       .  A
C3139      H3148   1.084       .  S
C3140      C3146   1.395       .  A
C3140      C3141   1.415       .  A
C3141      C3143   1.404       .  A
C3141      C3142   1.402   1_554  A
C3142      H3149   1.085       .  S
C3143      C3144   1.399       .  A
C3143      H3150   1.084   1_554  S
C3144      C3145   1.404       .  A
C3144      H3151   1.083       .  S
C3145      C3146   1.401       .  A
C3146      H3152   1.085       .  S
C3153      C3154   1.406       .  A
C3153      C3158   1.405       .  A
C3154      C3155   1.391       .  A
C3154      H3163   1.083       .  S
C3155      C3156   1.397       .  A
C3155      H3164   1.084       .  S
C3156      C3162   1.400       .  A
C3156      C3157   1.416       .  A
C3157      C3159   1.403   1_545  A
C3157      C3158   1.409       .  A
C3158      H3165   1.084       .  S
C3159      C3160   1.401       .  A
C3159      H3166   1.084       .  S
C3160      C3161   1.407       .  A
C3160      H3167   1.083       .  S
C3161      C3162   1.402   1_565  A
C3162      H3168   1.085       .  S
C3169      C3170   1.402       .  A
C3169      C3174   1.414       .  A
C3170      C3171   1.401       .  A
C3170      H3179   1.083       .  S
C3171      C3172   1.407       .  A
C3171      H3180   1.083       .  S
C3172      C3178   1.402       .  A
C3172      C3173   1.408       .  A
C3173      C3175   1.410       .  A
C3173      C3174   1.407       .  A
C3174      H3181   1.084       .  S
C3175      C3176   1.406       .  A
C3175      H3182   1.083       .  S
C3176      C3177   1.402       .  A
C3176      H3183   1.083       .  S
C3177      C3178   1.415       .  A
C3178      H3184   1.084       .  S
C3185      C3186   1.403       .  A
C3185      C3190   1.411       .  A
C3186      C3187   1.403       .  A
C3186      H3195   1.083       .  S
C3187      C3188   1.408       .  A
C3187      H3196   1.083       .  S
C3188      C3194   1.404       .  A
C3188      C3189   1.410       .  A
C3189      C3191   1.406       .  A
C3189      C3190   1.401       .  A
C3190      H3197   1.084       .  S
C3191      C3192   1.399       .  A
C3191      H3198   1.084       .  S
C3192      C3193   1.402       .  A
C3192      H3199   1.083       .  S
C3193      C3194   1.412       .  A
C3194      H3200   1.084       .  S
C3201      C3202   1.405       .  A
C3201      C3206   1.404       .  A
C3202      C3203   1.391       .  A
C3202      H3211   1.083       .  S
C3203      C3204   1.398       .  A
C3203      H3212   1.084       .  S
C3204      C3210   1.398       .  A
C3204      C3205   1.415       .  A
C3205      C3207   1.402       .  A
C3205      C3206   1.405       .  A
C3206      H3213   1.084       .  S
C3207      C3208   1.399       .  A
C3207      H3214   1.084       .  S
C3208      C3209   1.406       .  A
C3208      H3215   1.083       .  S
C3209      C3210   1.402       .  A
C3210      H3216   1.085       .  S
C3217      C3218   1.405       .  A
C3217      C3222   1.403       .  A
C3218      C3219   1.391       .  A
C3218      H3227   1.083       .  S
C3219      C3220   1.398       .  A
C3219      H3228   1.084       .  S
C3220      C3226   1.396       .  A
C3220      C3221   1.415       .  A
C3221      C3223   1.402       .  A
C3221      C3222   1.402       .  A
C3222      H3229   1.085       .  S
C3223      C3224   1.397       .  A
C3223      H3230   1.084       .  S
C3224      C3225   1.404       .  A
C3224      H3231   1.083       .  S
C3225      C3226   1.400       .  A
C3226      H3232   1.085       .  S
C3233      C3234   1.405       .  A
C3233      C3238   1.399       .  A
C3234      C3235   1.398       .  A
C3234      H3243   1.083       .  S
C3235      C3236   1.402       .  A
C3235      H3244   1.084   1_455  S
C3236      C3242   1.405   1_455  A
C3236      C3237   1.416       .  A
C3237      C3239   1.397       .  A
C3237      C3238   1.396       .  A
C3238      H3245   1.085       .  S
C3239      C3240   1.389       .  A
C3239      H3246   1.084       .  S
C3240      C3241   1.406   1_455  A
C3240      H3247   1.083       .  S
C3241      C3242   1.403       .  A
C3242      H3248   1.084       .  S
C3249      C3250   1.405       .  A
C3249      C3254   1.402       .  A
C3250      C3251   1.402       .  A
C3250      H3259   1.082       .  S
C3251      C3252   1.405       .  A
C3251      H3260   1.084       .  S
C3252      C3258   1.407       .  A
C3252      C3253   1.415       .  A
C3253      C3255   1.398       .  A
C3253      C3254   1.397       .  A
C3254      H3261   1.085       .  S
C3255      C3256   1.391       .  A
C3255      H3262   1.085       .  S
C3256      C3257   1.405       .  A
C3256      H3263   1.083       .  S
C3257      C3258   1.407       .  A
C3258      H3264   1.085       .  S
C3265      C3266   1.405       .  A
C3265      C3270   1.400   1_556  A
C3266      C3267   1.400   1_556  A
C3266      H3275   1.083       .  S
C3267      C3268   1.404       .  A
C3267      H3276   1.084       .  S
C3268      C3274   1.406       .  A
C3268      C3269   1.415       .  A
C3269      C3271   1.397       .  A
C3269      C3270   1.397       .  A
C3270      H3277   1.085       .  S
C3271      C3272   1.390       .  A
C3271      H3278   1.084       .  S
C3272      C3273   1.405       .  A
C3272      H3279   1.083       .  S
C3273      C3274   1.406       .  A
C3274      H3280   1.084       .  S
C3281      C3282   1.406       .  A
C3281      C3286   1.403       .  A
C3282      C3283   1.392       .  A
C3282      H3291   1.083       .  S
C3283      C3284   1.398       .  A
C3283      H3292   1.084       .  S
C3284      C3290   1.399       .  A
C3284      C3285   1.416       .  A
C3285      C3287   1.401       .  A
C3285      C3286   1.404       .  A
C3286      H3293   1.085       .  S
C3287      C3288   1.397       .  A
C3287      H3294   1.084       .  S
C3288      C3289   1.405       .  A
C3288      H3295   1.083       .  S
C3289      C3290   1.401       .  A
C3290      H3296   1.085       .  S
C3297      C3298   1.406       .  A
C3297      C3302   1.400       .  A
C3298      C3299   1.395       .  A
C3298      H3307   1.083       .  S
C3299      C3300   1.400       .  A
C3299      H3308   1.084   1_455  S
C3300      C3306   1.403   1_455  A
C3300      C3301   1.417       .  A
C3301      C3303   1.397       .  A
C3301      C3302   1.399       .  A
C3302      H3309   1.085       .  S
C3303      C3304   1.391       .  A
C3303      H3310   1.084       .  S
C3304      C3305   1.407   1_455  A
C3304      H3311   1.083       .  S
C3305      C3306   1.401       .  A
C3306      H3312   1.085       .  S
C3313      C3314   1.402       .  A
C3313      C3318   1.413       .  A
C3314      C3315   1.405       .  A
C3314      H3323   1.083       .  S
C3315      C3316   1.410       .  A
C3315      H3324   1.083       .  S
C3316      C3322   1.405       .  A
C3316      C3317   1.408       .  A
C3317      C3319   1.407       .  A
C3317      C3318   1.401       .  A
C3318      H3325   1.084       .  S
C3319      C3320   1.401       .  A
C3319      H3326   1.084       .  S
C3320      C3321   1.401       .  A
C3320      H3327   1.083       .  S
C3321      C3322   1.416       .  A
C3322      H3328   1.084       .  S
C3329      C3330   1.402       .  A
C3329      C3334   1.414       .  A
C3330      C3331   1.406       .  A
C3330      H3339   1.083       .  S
C3331      C3332   1.410       .  A
C3331      H3340   1.083       .  S
C3332      C3338   1.406       .  A
C3332      C3333   1.408       .  A
C3333      C3335   1.406       .  A
C3333      C3334   1.399       .  A
C3334      H3341   1.084       .  S
C3335      C3336   1.399       .  A
C3335      H3342   1.083       .  S
C3336      C3337   1.401       .  A
C3336      H3343   1.083       .  S
C3337      C3338   1.414       .  A
C3338      H3344   1.084       .  S
C3345      C3346   1.404       .  A
C3345      C3350   1.401       .  A
C3346      C3347   1.395       .  A
C3346      H3355   1.083       .  S
C3347      C3348   1.400       .  A
C3347      H3356   1.084       .  S
C3348      C3354   1.401       .  A
C3348      C3349   1.416       .  A
C3349      C3351   1.399       .  A
C3349      C3350   1.399       .  A
C3350      H3357   1.085       .  S
C3351      C3352   1.393       .  A
C3351      H3358   1.084       .  S
C3352      C3353   1.405       .  A
C3352      H3359   1.083       .  S
C3353      C3354   1.401       .  A
C3354      H3360   1.084       .  S
C3361      C3362   1.403       .  A
C3361      C3366   1.400       .  A
C3362      C3363   1.397       .  A
C3362      H3371   1.083       .  S
C3363      C3364   1.402       .  A
C3363      H3372   1.084       .  S
C3364      C3370   1.400       .  A
C3364      C3365   1.415       .  A
C3365      C3367   1.399       .  A
C3365      C3366   1.395       .  A
C3366      H3373   1.085       .  S
C3367      C3368   1.391       .  A
C3367      H3374   1.084       .  S
C3368      C3369   1.403       .  A
C3368      H3375   1.083       .  S
C3369      C3370   1.403       .  A
C3370      H3376   1.085       .  S
C3377      C3378   1.405       .  A
C3377      C3382   1.405       .  A
C3378      C3379   1.391       .  A
C3378      H3387   1.083       .  S
C3379      C3380   1.398       .  A
C3379      H3388   1.085       .  S
C3380      C3386   1.397       .  A
C3380      C3381   1.415       .  A
C3381      C3383   1.403       .  A
C3381      C3382   1.405       .  A
C3382      H3389   1.085       .  S
C3383      C3384   1.400       .  A
C3383      H3390   1.084       .  S
C3384      C3385   1.404       .  A
C3384      H3391   1.083       .  S
C3385      C3386   1.402       .  A
C3386      H3392   1.085       .  S
C3393      C3394   1.405       .  A
C3393      C3398   1.401   1_565  A
C3394      C3395   1.398   1_565  A
C3394      H3403   1.083       .  S
C3395      C3396   1.403       .  A
C3395      H3404   1.084   1_545  S
C3396      C3402   1.403       .  A
C3396      C3397   1.415       .  A
C3397      C3399   1.399       .  A
C3397      C3398   1.397       .  A
C3398      H3405   1.085       .  S
C3399      C3400   1.391       .  A
C3399      H3406   1.084       .  S
C3400      C3401   1.404       .  A
C3400      H3407   1.083       .  S
C3401      C3402   1.405       .  A
C3402      H3408   1.084       .  S
C3409      C3410   1.403       .  A
C3409      C3414   1.413       .  A
C3410      C3411   1.401       .  A
C3410      H3419   1.083       .  S
C3411      C3412   1.406       .  A
C3411      H3420   1.083       .  S
C3412      C3418   1.406       .  A
C3412      C3413   1.411       .  A
C3413      C3415   1.407       .  A
C3413      C3414   1.409       .  A
C3414      H3421   1.084       .  S
C3415      C3416   1.404       .  A
C3415      H3422   1.083       .  S
C3416      C3417   1.404       .  A
C3416      H3423   1.083       .  S
C3417      C3418   1.413       .  A
C3418      H3424   1.084       .  S
C3425      C3426   1.402       .  A
C3425      C3430   1.415       .  A
C3426      C3427   1.409       .  A
C3426      H3435   1.083       .  S
C3427      C3428   1.412       .  A
C3427      H3436   1.083       .  S
C3428      C3434   1.408       .  A
C3428      C3429   1.407       .  A
C3429      C3431   1.407       .  A
C3429      C3430   1.399       .  A
C3430      H3437   1.084       .  S
C3431      C3432   1.400       .  A
C3431      H3438   1.084       .  S
C3432      C3433   1.400       .  A
C3432      H3439   1.083       .  S
C3433      C3434   1.417       .  A
C3434      H3440   1.084       .  S
C3441      C3442   1.403       .  A
C3441      C3446   1.402       .  A
C3442      C3443   1.392       .  A
C3442      H3451   1.083       .  S
C3443      C3444   1.400       .  A
C3443      H3452   1.084       .  S
C3444      C3450   1.395       .  A
C3444      C3445   1.415       .  A
C3445      C3447   1.402       .  A
C3445      C3446   1.398       .  A
C3446      H3453   1.085       .  S
C3447      C3448   1.395       .  A
C3447      H3454   1.084       .  S
C3448      C3449   1.403       .  A
C3448      H3455   1.083       .  S
C3449      C3450   1.400       .  A
C3450      H3456   1.085       .  S
C3457      C3458   1.404       .  A
C3457      C3462   1.400       .  A
C3458      C3459   1.397       .  A
C3458      H3467   1.083       .  S
C3459      C3460   1.402       .  A
C3459      H3468   1.084       .  S
C3460      C3466   1.402       .  A
C3460      C3461   1.416       .  A
C3461      C3463   1.399       .  A
C3461      C3462   1.397       .  A
C3462      H3469   1.085       .  S
C3463      C3464   1.392       .  A
C3463      H3470   1.084       .  S
C3464      C3465   1.403       .  A
C3464      H3471   1.083       .  S
C3465      C3466   1.402       .  A
C3466      H3472   1.084       .  S
C3473      C3474   1.405       .  A
C3473      C3478   1.403   1_655  A
C3474      C3475   1.399       .  A
C3474      H3483   1.083       .  S
C3475      C3476   1.403   1_655  A
C3475      H3484   1.084       .  S
C3476      C3482   1.405       .  A
C3476      C3477   1.415       .  A
C3477      C3479   1.398       .  A
C3477      C3478   1.398       .  A
C3478      H3485   1.085       .  S
C3479      C3480   1.392       .  A
C3479      H3486   1.084       .  S
C3480      C3481   1.406       .  A
C3480      H3487   1.083       .  S
C3481      C3482   1.405       .  A
C3482      H3488   1.085       .  S
C3489      C3490   1.403       .  A
C3489      C3494   1.399       .  A
C3490      C3491   1.397       .  A
C3490      H3499   1.083       .  S
C3491      C3492   1.402       .  A
C3491      H3500   1.084   1_545  S
C3492      C3498   1.400   1_545  A
C3492      C3493   1.416       .  A
C3493      C3495   1.398       .  A
C3493      C3494   1.394       .  A
C3494      H3501   1.085       .  S
C3495      C3496   1.390       .  A
C3495      H3502   1.084       .  S
C3496      C3497   1.404   1_545  A
C3496      H3503   1.083       .  S
C3497      C3498   1.402       .  A
C3498      H3504   1.084       .  S
C3505      C3506   1.404       .  A
C3505      C3510   1.413       .  A
C3506      C3507   1.408       .  A
C3506      H3515   1.083       .  S
C3507      C3508   1.411       .  A
C3507      H3516   1.083       .  S
C3508      C3514   1.410       .  A
C3508      C3509   1.409       .  A
C3509      C3511   1.405       .  A
C3509      C3510   1.401       .  A
C3510      H3517   1.084       .  S
C3511      C3512   1.398       .  A
C3511      H3518   1.084       .  S
C3512      C3513   1.401       .  A
C3512      H3519   1.083       .  S
C3513      C3514   1.416       .  A
C3514      H3520   1.084       .  S
C3521      C3522   1.402       .  A
C3521      C3526   1.415       .  A
C3522      C3523   1.400       .  A
C3522      H3531   1.083       .  S
C3523      C3524   1.406       .  A
C3523      H3532   1.084       .  S
C3524      C3530   1.402       .  A
C3524      C3525   1.409       .  A
C3525      C3527   1.410       .  A
C3525      C3526   1.409       .  A
C3526      H3533   1.084       .  S
C3527      C3528   1.407       .  A
C3527      H3534   1.083       .  S
C3528      C3529   1.403       .  A
C3528      H3535   1.083       .  S
C3529      C3530   1.412       .  A
C3530      H3536   1.084       .  S
C3537      C3538   1.402       .  A
C3537      C3542   1.415       .  A
C3538      C3539   1.405       .  A
C3538      H3547   1.083       .  S
C3539      C3540   1.409       .  A
C3539      H3548   1.083       .  S
C3540      C3546   1.407   1_655  A
C3540      C3541   1.409       .  A
C3541      C3543   1.408   1_655  A
C3541      C3542   1.406       .  A
C3542      H3549   1.084       .  S
C3543      C3544   1.403       .  A
C3543      H3550   1.083       .  S
C3544      C3545   1.403       .  A
C3544      H3551   1.083       .  S
C3545      C3546   1.415       .  A
C3546      H3552   1.083       .  S
C3553      C3554   1.403       .  A
C3553      C3558   1.418       .  A
C3554      C3555   1.402       .  A
C3554      H3563   1.083       .  S
C3555      C3556   1.407   1_565  A
C3555      H3564   1.084       .  S
C3556      C3562   1.405       .  A
C3556      C3557   1.409       .  A
C3557      C3559   1.411       .  A
C3557      C3558   1.411   1_545  A
C3558      H3565   1.084       .  S
C3559      C3560   1.408       .  A
C3559      H3566   1.084       .  S
C3560      C3561   1.403       .  A
C3560      H3567   1.083       .  S
C3561      C3562   1.414       .  A
C3562      H3568   1.084       .  S
C3569      C3570   1.402       .  A
C3569      C3574   1.417       .  A
C3570      C3571   1.399       .  A
C3570      H3579   1.083       .  S
C3571      C3572   1.405       .  A
C3571      H3580   1.083       .  S
C3572      C3578   1.402       .  A
C3572      C3573   1.409       .  A
C3573      C3575   1.411       .  A
C3573      C3574   1.411       .  A
C3574      H3581   1.083       .  S
C3575      C3576   1.409       .  A
C3575      H3582   1.083       .  S
C3576      C3577   1.404       .  A
C3576      H3583   1.083       .  S
C3577      C3578   1.413       .  A
C3578      H3584   1.083       .  S
C3585      C3586   1.401       .  A
C3585      C3590   1.413       .  A
C3586      C3587   1.403       .  A
C3586      H3595   1.083       .  S
C3587      C3588   1.408       .  A
C3587      H3596   1.083       .  S
C3588      C3594   1.402       .  A
C3588      C3589   1.409       .  A
C3589      C3591   1.407       .  A
C3589      C3590   1.400       .  A
C3590      H3597   1.084       .  S
C3591      C3592   1.400       .  A
C3591      H3598   1.083       .  S
C3592      C3593   1.401       .  A
C3592      H3599   1.083       .  S
C3593      C3594   1.412       .  A
C3594      H3600   1.084       .  S
C3601      C3602   1.403       .  A
C3601      C3606   1.415       .  A
C3602      C3603   1.402       .  A
C3602      H3611   1.083       .  S
C3603      C3604   1.406   1_455  A
C3603      H3612   1.084       .  S
C3604      C3610   1.407       .  A
C3604      C3605   1.411   1_655  A
C3605      C3607   1.408   1_455  A
C3605      C3606   1.410       .  A
C3606      H3613   1.084       .  S
C3607      C3608   1.405       .  A
C3607      H3614   1.084       .  S
C3608      C3609   1.404       .  A
C3608      H3615   1.083       .  S
C3609      C3610   1.412       .  A
C3610      H3616   1.084       .  S
C3617      C3618   1.402       .  A
C3617      C3622   1.413       .  A
C3618      C3619   1.405       .  A
C3618      H3627   1.083       .  S
C3619      C3620   1.409       .  A
C3619      H3628   1.084       .  S
C3620      C3626   1.406       .  A
C3620      C3621   1.409       .  A
C3621      C3623   1.406       .  A
C3621      C3622   1.402       .  A
C3622      H3629   1.084       .  S
C3623      C3624   1.400       .  A
C3623      H3630   1.084       .  S
C3624      C3625   1.401       .  A
C3624      H3631   1.083       .  S
C3625      C3626   1.413       .  A
C3626      H3632   1.084       .  S
C3633      C3634   1.407       .  A
C3633      C3638   1.404       .  A
C3634      C3635   1.395       .  A
C3634      H3643   1.083       .  S
C3635      C3636   1.400       .  A
C3635      H3644   1.084       .  S
C3636      C3642   1.404       .  A
C3636      C3637   1.415       .  A
C3637      C3639   1.401   1_565  A
C3637      C3638   1.405       .  A
C3638      H3645   1.085       .  S
C3639      C3640   1.397       .  A
C3639      H3646   1.084       .  S
C3640      C3641   1.406       .  A
C3640      H3647   1.083       .  S
C3641      C3642   1.404   1_545  A
C3642      H3648   1.085       .  S
C3649      C3650   1.402       .  A
C3649      C3654   1.415       .  A
C3650      C3651   1.404       .  A
C3650      H3659   1.083       .  S
C3651      C3652   1.409       .  A
C3651      H3660   1.083       .  S
C3652      C3658   1.405       .  A
C3652      C3653   1.408       .  A
C3653      C3655   1.409       .  A
C3653      C3654   1.405       .  A
C3654      H3661   1.084       .  S
C3655      C3656   1.404       .  A
C3655      H3662   1.084       .  S
C3656      C3657   1.402       .  A
C3656      H3663   1.083       .  S
C3657      C3658   1.416       .  A
C3658      H3664   1.084       .  S
C3665      C3666   1.402       .  A
C3665      C3670   1.415       .  A
C3666      C3667   1.403       .  A
C3666      H3675   1.083       .  S
C3667      C3668   1.408       .  A
C3667      H3676   1.083       .  S
C3668      C3674   1.404       .  A
C3668      C3669   1.408       .  A
C3669      C3671   1.409       .  A
C3669      C3670   1.406       .  A
C3670      H3677   1.084       .  S
C3671      C3672   1.404       .  A
C3671      H3678   1.084       .  S
C3672      C3673   1.402       .  A
C3672      H3679   1.083       .  S
C3673      C3674   1.415       .  A
C3674      H3680   1.084       .  S
C3681      C3682   1.400       .  A
C3681      C3686   1.416       .  A
C3682      C3683   1.401       .  A
C3682      H3691   1.083       .  S
C3683      C3684   1.408   1_565  A
C3683      H3692   1.083       .  S
C3684      C3690   1.399       .  A
C3684      C3685   1.407       .  A
C3685      C3687   1.410       .  A
C3685      C3686   1.402   1_545  A
C3686      H3693   1.083       .  S
C3687      C3688   1.404       .  A
C3687      H3694   1.083       .  S
C3688      C3689   1.401       .  A
C3688      H3695   1.083       .  S
C3689      C3690   1.414       .  A
C3690      H3696   1.084       .  S
C3697      C3698   1.405       .  A
C3697      C3702   1.399       .  A
C3698      C3699   1.397       .  A
C3698      H3707   1.083       .  S
C3699      C3700   1.402   1_545  A
C3699      H3708   1.084   1_655  S
C3700      C3706   1.403   1_655  A
C3700      C3701   1.416       .  A
C3701      C3703   1.398       .  A
C3701      C3702   1.396   1_565  A
C3702      H3709   1.085       .  S
C3703      C3704   1.390       .  A
C3703      H3710   1.084       .  S
C3704      C3705   1.405   1_655  A
C3704      H3711   1.083       .  S
C3705      C3706   1.403       .  A
C3706      H3712   1.084       .  S
C3713      C3714   1.404       .  A
C3713      C3718   1.414       .  A
C3714      C3715   1.407       .  A
C3714      H3723   1.083       .  S
C3715      C3716   1.409       .  A
C3715      H3724   1.083       .  S
C3716      C3722   1.412       .  A
C3716      C3717   1.410       .  A
C3717      C3719   1.406       .  A
C3717      C3718   1.407       .  A
C3718      H3725   1.084       .  S
C3719      C3720   1.402       .  A
C3719      H3726   1.084       .  S
C3720      C3721   1.404       .  A
C3720      H3727   1.083       .  S
C3721      C3722   1.416       .  A
C3722      H3728   1.084       .  S
C3729      C3730   1.403       .  A
C3729      C3734   1.401       .  A
C3730      C3731   1.398       .  A
C3730      H3739   1.083       .  S
C3731      C3732   1.403       .  A
C3731      H3740   1.084   1_655  S
C3732      C3738   1.401   1_655  A
C3732      C3733   1.415       .  A
C3733      C3735   1.398       .  A
C3733      C3734   1.394       .  A
C3734      H3741   1.085       .  S
C3735      C3736   1.390       .  A
C3735      H3742   1.084       .  S
C3736      C3737   1.404   1_655  A
C3736      H3743   1.083       .  S
C3737      C3738   1.403       .  A
C3738      H3744   1.085       .  S
C3745      C3746   1.406       .  A
C3745      C3750   1.402       .  A
C3746      C3747   1.393       .  A
C3746      H3755   1.083       .  S
C3747      C3748   1.399       .  A
C3747      H3756   1.084       .  S
C3748      C3754   1.399       .  A
C3748      C3749   1.416       .  A
C3749      C3751   1.400       .  A
C3749      C3750   1.401       .  A
C3750      H3757   1.085       .  S
C3751      C3752   1.395       .  A
C3751      H3758   1.084       .  S
C3752      C3753   1.405       .  A
C3752      H3759   1.083       .  S
C3753      C3754   1.403       .  A
C3754      H3760   1.085       .  S
C3761      C3762   1.404       .  A
C3761      C3766   1.412       .  A
C3762      C3763   1.403       .  A
C3762      H3771   1.083       .  S
C3763      C3764   1.407       .  A
C3763      H3772   1.083       .  S
C3764      C3770   1.407       .  A
C3764      C3765   1.411       .  A
C3765      C3767   1.406       .  A
C3765      C3766   1.405       .  A
C3766      H3773   1.084       .  S
C3767      C3768   1.401       .  A
C3767      H3774   1.084       .  S
C3768      C3769   1.402       .  A
C3768      H3775   1.083       .  S
C3769      C3770   1.412       .  A
C3770      H3776   1.084       .  S
C3777      C3778   1.400       .  A
C3777      C3782   1.414       .  A
C3778      C3779   1.403       .  A
C3778      H3787   1.083       .  S
C3779      C3780   1.409       .  A
C3779      H3788   1.083       .  S
C3780      C3786   1.401       .  A
C3780      C3781   1.407       .  A
C3781      C3783   1.408       .  A
C3781      C3782   1.400       .  A
C3782      H3789   1.084       .  S
C3783      C3784   1.401       .  A
C3783      H3790   1.083       .  S
C3784      C3785   1.401       .  A
C3784      H3791   1.083       .  S
C3785      C3786   1.414       .  A
C3786      H3792   1.084       .  S
C3793      C3794   1.402       .  A
C3793      C3798   1.413       .  A
C3794      C3795   1.404       .  A
C3794      H3803   1.083       .  S
C3795      C3796   1.408   1_565  A
C3795      H3804   1.084       .  S
C3796      C3802   1.407       .  A
C3796      C3797   1.410       .  A
C3797      C3799   1.407       .  A
C3797      C3798   1.405   1_545  A
C3798      H3805   1.084       .  S
C3799      C3800   1.402       .  A
C3799      H3806   1.084       .  S
C3800      C3801   1.403       .  A
C3800      H3807   1.083       .  S
C3801      C3802   1.414       .  A
C3802      H3808   1.084       .  S
C3809      C3810   1.407       .  A
C3809      C3814   1.399       .  A
C3810      C3811   1.400       .  A
C3810      H3819   1.082       .  S
C3811      C3812   1.402   1_545  A
C3811      H3820   1.084       .  S
C3812      C3818   1.408       .  A
C3812      C3813   1.416       .  A
C3813      C3815   1.396       .  A
C3813      C3814   1.398   1_565  A
C3814      H3821   1.085   1_545  S
C3815      C3816   1.389       .  A
C3815      H3822   1.085       .  S
C3816      C3817   1.407       .  A
C3816      H3823   1.083       .  S
C3817      C3818   1.405       .  A
C3818      H3824   1.085       .  S
C3825      C3826   1.403       .  A
C3825      C3830   1.415       .  A
C3826      C3827   1.404       .  A
C3826      H3835   1.083       .  S
C3827      C3828   1.408       .  A
C3827      H3836   1.083       .  S
C3828      C3834   1.407       .  A
C3828      C3829   1.409       .  A
C3829      C3831   1.408       .  A
C3829      C3830   1.407       .  A
C3830      H3837   1.084       .  S
C3831      C3832   1.404       .  A
C3831      H3838   1.084       .  S
C3832      C3833   1.402       .  A
C3832      H3839   1.083       .  S
C3833      C3834   1.415       .  A
C3834      H3840   1.084       .  S
C3841      C3842   1.402       .  A
C3841      C3846   1.414       .  A
C3842      C3843   1.402       .  A
C3842      H3851   1.083       .  S
C3843      C3844   1.407       .  A
C3843      H3852   1.083       .  S
C3844      C3850   1.404       .  A
C3844      C3845   1.409       .  A
C3845      C3847   1.408       .  A
C3845      C3846   1.406       .  A
C3846      H3853   1.084       .  S
C3847      C3848   1.404       .  A
C3847      H3854   1.083       .  S
C3848      C3849   1.403       .  A
C3848      H3855   1.083       .  S
C3849      C3850   1.414       .  A
C3850      H3856   1.084       .  S
C3857      C3858   1.404       .  A
C3857      C3862   1.399       .  A
C3858      C3859   1.396       .  A
C3858      H3867   1.083       .  S
C3859      C3860   1.402       .  A
C3859      H3868   1.084       .  S
C3860      C3866   1.400       .  A
C3860      C3861   1.416       .  A
C3861      C3863   1.398       .  A
C3861      C3862   1.395       .  A
C3862      H3869   1.085       .  S
C3863      C3864   1.390       .  A
C3863      H3870   1.084       .  S
C3864      C3865   1.404       .  A
C3864      H3871   1.084       .  S
C3865      C3866   1.401       .  A
C3866      H3872   1.084       .  S
C3873      C3874   1.404       .  A
C3873      C3878   1.406       .  A
C3874      C3875   1.392       .  A
C3874      H3883   1.083       .  S
C3875      C3876   1.399       .  A
C3875      H3884   1.084       .  S
C3876      C3882   1.396       .  A
C3876      C3877   1.414       .  A
C3877      C3879   1.405       .  A
C3877      C3878   1.405       .  A
C3878      H3885   1.084       .  S
C3879      C3880   1.401       .  A
C3879      H3886   1.084       .  S
C3880      C3881   1.403       .  A
C3880      H3887   1.083       .  S
C3881      C3882   1.403       .  A
C3882      H3888   1.085       .  S
C3889      C3890   1.400       .  A
C3889      C3894   1.414       .  A
C3890      C3891   1.402       .  A
C3890      H3899   1.083       .  S
C3891      C3892   1.408       .  A
C3891      H3900   1.083       .  S
C3892      C3898   1.401       .  A
C3892      C3893   1.408       .  A
C3893      C3895   1.408       .  A
C3893      C3894   1.400       .  A
C3894      H3901   1.084       .  S
C3895      C3896   1.402       .  A
C3895      H3902   1.083       .  S
C3896      C3897   1.401       .  A
C3896      H3903   1.083       .  S
C3897      C3898   1.413       .  A
C3898      H3904   1.084       .  S
C3905      C3906   1.401       .  A
C3905      C3910   1.415       .  A
C3906      C3907   1.401       .  A
C3906      H3915   1.083       .  S
C3907      C3908   1.407   1_655  A
C3907      H3916   1.084       .  S
C3908      C3914   1.401       .  A
C3908      C3909   1.408   1_455  A
C3909      C3911   1.409   1_655  A
C3909      C3910   1.403       .  A
C3910      H3917   1.084       .  S
C3911      C3912   1.403       .  A
C3911      H3918   1.083       .  S
C3912      C3913   1.402       .  A
C3912      H3919   1.083       .  S
C3913      C3914   1.412       .  A
C3914      H3920   1.084       .  S
C3921      C3922   1.406       .  A
C3921      C3926   1.400       .  A
C3922      C3923   1.398       .  A
C3922      H3931   1.083       .  S
C3923      C3924   1.402       .  A
C3923      H3932   1.084   1_655  S
C3924      C3930   1.406   1_655  A
C3924      C3925   1.416       .  A
C3925      C3927   1.397       .  A
C3925      C3926   1.399       .  A
C3926      H3933   1.085       .  S
C3927      C3928   1.391       .  A
C3927      H3934   1.084       .  S
C3928      C3929   1.407   1_655  A
C3928      H3935   1.083       .  S
C3929      C3930   1.404       .  A
C3930      H3936   1.084       .  S
C3937      C3938   1.400       .  A
C3937      C3942   1.414       .  A
C3938      C3939   1.403       .  A
C3938      H3947   1.083       .  S
C3939      C3940   1.409       .  A
C3939      H3948   1.083       .  S
C3940      C3946   1.400       .  A
C3940      C3941   1.407       .  A
C3941      C3943   1.408       .  A
C3941      C3942   1.400       .  A
C3942      H3949   1.084       .  S
C3943      C3944   1.402       .  A
C3943      H3950   1.083       .  S
C3944      C3945   1.401       .  A
C3944      H3951   1.083       .  S
C3945      C3946   1.414       .  A
C3946      H3952   1.084       .  S
C3953      C3954   1.401       .  A
C3953      C3958   1.417       .  A
C3954      C3955   1.400       .  A
C3954      H3963   1.083       .  S
C3955      C3956   1.407   1_565  A
C3955      H3964   1.083       .  S
C3956      C3962   1.402       .  A
C3956      C3957   1.408       .  A
C3957      C3959   1.411       .  A
C3957      C3958   1.409   1_545  A
C3958      H3965   1.083       .  S
C3959      C3960   1.408       .  A
C3959      H3966   1.083       .  S
C3960      C3961   1.403       .  A
C3960      H3967   1.083       .  S
C3961      C3962   1.415       .  A
C3962      H3968   1.083       .  S
C3969      C3970   1.403       .  A
C3969      C3974   1.413       .  A
C3970      C3971   1.404       .  A
C3970      H3979   1.083       .  S
C3971      C3972   1.408       .  A
C3971      H3980   1.083       .  S
C3972      C3978   1.406   1_655  A
C3972      C3973   1.409       .  A
C3973      C3975   1.407   1_655  A
C3973      C3974   1.404       .  A
C3974      H3981   1.084       .  S
C3975      C3976   1.402       .  A
C3975      H3982   1.083       .  S
C3976      C3977   1.402       .  A
C3976      H3983   1.083       .  S
C3977      C3978   1.415       .  A
C3978      H3984   1.084       .  S
C3985      C3986   1.405       .  A
C3985      C3990   1.403       .  A
C3986      C3987   1.399       .  A
C3986      H3995   1.083       .  S
C3987      C3988   1.403   1_545  A
C3987      H3996   1.084       .  S
C3988      C3994   1.405       .  A
C3988      C3989   1.415       .  A
C3989      C3991   1.400       .  A
C3989      C3990   1.400   1_565  A
C3990      H3997   1.085       .  S
C3991      C3992   1.394       .  A
C3991      H3998   1.084       .  S
C3992      C3993   1.406       .  A
C3992      H3999   1.083       .  S
C3993      C3994   1.404       .  A
C3994      H4000   1.085       .  S
C4001      C4002   1.405       .  A
C4001      C4006   1.402       .  A
C4002      C4003   1.391       .  A
C4002      H4011   1.083       .  S
C4003      C4004   1.398       .  A
C4003      H4012   1.084       .  S
C4004      C4010   1.396       .  A
C4004      C4005   1.415       .  A
C4005      C4007   1.402   1_655  A
C4005      C4006   1.401       .  A
C4006      H4013   1.084       .  S
C4007      C4008   1.397       .  A
C4007      H4014   1.084       .  S
C4008      C4009   1.404       .  A
C4008      H4015   1.083       .  S
C4009      C4010   1.401   1_455  A
C4010      H4016   1.085       .  S
C4017      C4018   1.405       .  A
C4017      C4022   1.399       .  A
C4018      C4019   1.397       .  A
C4018      H4027   1.083       .  S
C4019      C4020   1.402       .  A
C4019      H4028   1.084       .  S
C4020      C4026   1.404       .  A
C4020      C4021   1.416       .  A
C4021      C4023   1.397       .  A
C4021      C4022   1.396       .  A
C4022      H4029   1.085       .  S
C4023      C4024   1.390       .  A
C4023      H4030   1.084       .  S
C4024      C4025   1.406       .  A
C4024      H4031   1.083       .  S
C4025      C4026   1.402       .  A
C4026      H4032   1.084       .  S
C4033      C4034   1.403       .  A
C4033      C4038   1.412       .  A
C4034      C4035   1.404       .  A
C4034      H4043   1.083       .  S
C4035      C4036   1.408       .  A
C4035      H4044   1.083       .  S
C4036      C4042   1.407       .  A
C4036      C4037   1.410       .  A
C4037      C4039   1.406       .  A
C4037      C4038   1.404       .  A
C4038      H4045   1.084       .  S
C4039      C4040   1.401       .  A
C4039      H4046   1.083       .  S
C4040      C4041   1.402       .  A
C4040      H4047   1.083       .  S
C4041      C4042   1.413       .  A
C4042      H4048   1.084       .  S
C4049      C4050   1.405       .  A
C4049      C4054   1.399       .  A
C4050      C4051   1.390       .  A
C4050      H4059   1.084       .  S
C4051      C4052   1.397       .  A
C4051      H4060   1.084       .  S
C4052      C4058   1.397       .  A
C4052      C4053   1.417       .  A
C4053      C4055   1.399       .  A
C4053      C4054   1.399       .  A
C4054      H4061   1.085       .  S
C4055      C4056   1.393       .  A
C4055      H4062   1.084       .  S
C4056      C4057   1.406       .  A
C4056      H4063   1.083       .  S
C4057      C4058   1.398       .  A
C4058      H4064   1.085       .  S
C4065      C4066   1.402       .  A
C4065      C4070   1.415       .  A
C4066      C4067   1.406       .  A
C4066      H4075   1.083       .  S
C4067      C4068   1.409       .  A
C4067      H4076   1.083       .  S
C4068      C4074   1.408       .  A
C4068      C4069   1.408       .  A
C4069      C4071   1.408       .  A
C4069      C4070   1.405       .  A
C4070      H4077   1.084       .  S
C4071      C4072   1.403       .  A
C4071      H4078   1.083       .  S
C4072      C4073   1.402       .  A
C4072      H4079   1.083       .  S
C4073      C4074   1.416       .  A
C4074      H4080   1.084       .  S
C4081      C4082   1.403       .  A
C4081      C4086   1.412       .  A
C4082      C4083   1.402       .  A
C4082      H4091   1.083       .  S
C4083      C4084   1.407       .  A
C4083      H4092   1.083       .  S
C4084      C4090   1.404       .  A
C4084      C4085   1.410       .  A
C4085      C4087   1.407       .  A
C4085      C4086   1.405       .  A
C4086      H4093   1.084       .  S
C4087      C4088   1.403       .  A
C4087      H4094   1.083       .  S
C4088      C4089   1.402       .  A
C4088      H4095   1.083       .  S
C4089      C4090   1.413       .  A
C4090      H4096   1.084       .  S
C4097      C4098   1.401       .  A
C4097      C4102   1.415       .  A
C4098      C4099   1.405       .  A
C4098      H4107   1.083       .  S
C4099      C4100   1.410       .  A
C4099      H4108   1.083       .  S
C4100      C4106   1.403       .  A
C4100      C4101   1.407       .  A
C4101      C4103   1.409       .  A
C4101      C4102   1.401       .  A
C4102      H4109   1.083       .  S
C4103      C4104   1.402       .  A
C4103      H4110   1.083       .  S
C4104      C4105   1.400       .  A
C4104      H4111   1.083       .  S
C4105      C4106   1.416       .  A
C4106      H4112   1.083       .  S
C4113      C4114   1.401       .  A
C4113      C4118   1.415       .  A
C4114      C4115   1.398       .  A
C4114      H4123   1.083       .  S
C4115      C4116   1.405       .  A
C4115      H4124   1.084       .  S
C4116      C4122   1.398   1_655  A
C4116      C4117   1.409       .  A
C4117      C4119   1.410   1_655  A
C4117      C4118   1.405       .  A
C4118      H4125   1.084       .  S
C4119      C4120   1.405       .  A
C4119      H4126   1.083       .  S
C4120      C4121   1.402       .  A
C4120      H4127   1.083       .  S
C4121      C4122   1.411       .  A
C4122      H4128   1.084       .  S
C4129      C4130   1.402       .  A
C4129      C4134   1.416       .  A
C4130      C4131   1.406       .  A
C4130      H4139   1.083       .  S
C4131      C4132   1.410   1_556  A
C4131      H4140   1.083       .  S
C4132      C4138   1.407       .  A
C4132      C4133   1.408       .  A
C4133      C4135   1.408       .  A
C4133      C4134   1.405   1_554  A
C4134      H4141   1.084       .  S
C4135      C4136   1.403       .  A
C4135      H4142   1.083       .  S
C4136      C4137   1.402       .  A
C4136      H4143   1.083       .  S
C4137      C4138   1.417       .  A
C4138      H4144   1.084       .  S
C4145      C4146   1.403       .  A
C4145      C4150   1.416       .  A
C4146      C4147   1.407       .  A
C4146      H4155   1.083       .  S
C4147      C4148   1.410       .  A
C4147      H4156   1.083       .  S
C4148      C4154   1.409       .  A
C4148      C4149   1.408       .  A
C4149      C4151   1.408       .  A
C4149      C4150   1.406       .  A
C4150      H4157   1.084       .  S
C4151      C4152   1.403       .  A
C4151      H4158   1.083       .  S
C4152      C4153   1.402       .  A
C4152      H4159   1.083       .  S
C4153      C4154   1.416       .  A
C4154      H4160   1.083       .  S
C4161      C4162   1.403       .  A
C4161      C4166   1.414       .  A
C4162      C4163   1.403       .  A
C4162      H4171   1.083       .  S
C4163      C4164   1.407       .  A
C4163      H4172   1.083       .  S
C4164      C4170   1.407       .  A
C4164      C4165   1.410       .  A
C4165      C4167   1.407       .  A
C4165      C4166   1.408       .  A
C4166      H4173   1.083       .  S
C4167      C4168   1.404       .  A
C4167      H4174   1.083       .  S
C4168      C4169   1.404       .  A
C4168      H4175   1.083       .  S
C4169      C4170   1.413       .  A
C4170      H4176   1.084       .  S
C4177      C4178   1.404       .  A
C4177      C4182   1.414       .  A
C4178      C4179   1.404       .  A
C4178      H4187   1.083       .  S
C4179      C4180   1.407       .  A
C4179      H4188   1.083       .  S
C4180      C4186   1.407       .  A
C4180      C4181   1.410       .  A
C4181      C4183   1.407       .  A
C4181      C4182   1.407       .  A
C4182      H4189   1.084       .  S
C4183      C4184   1.403       .  A
C4183      H4190   1.083       .  S
C4184      C4185   1.402       .  A
C4184      H4191   1.083       .  S
C4185      C4186   1.414       .  A
C4186      H4192   1.084       .  S
C4193      C4194   1.406       .  A
C4193      C4198   1.401       .  A
C4194      C4195   1.400       .  A
C4194      H4203   1.083       .  S
C4195      C4196   1.403   1_554  A
C4195      H4204   1.084       .  S
C4196      C4202   1.406       .  A
C4196      C4197   1.416       .  A
C4197      C4199   1.396       .  A
C4197      C4198   1.397   1_556  A
C4198      H4205   1.085       .  S
C4199      C4200   1.389       .  A
C4199      H4206   1.084       .  S
C4200      C4201   1.406       .  A
C4200      H4207   1.083       .  S
C4201      C4202   1.404       .  A
C4202      H4208   1.084       .  S
C4209      C4210   1.403       .  A
C4209      C4214   1.412       .  A
C4210      C4211   1.408       .  A
C4210      H4219   1.083       .  S
C4211      C4212   1.410       .  A
C4211      H4220   1.083       .  S
C4212      C4218   1.412   1_655  A
C4212      C4213   1.410       .  A
C4213      C4215   1.405   1_655  A
C4213      C4214   1.404       .  A
C4214      H4221   1.084       .  S
C4215      C4216   1.400       .  A
C4215      H4222   1.083       .  S
C4216      C4217   1.403       .  A
C4216      H4223   1.083       .  S
C4217      C4218   1.416       .  A
C4218      H4224   1.084       .  S
C4225      C4226   1.403       .  A
C4225      C4230   1.415       .  A
C4226      C4227   1.402       .  A
C4226      H4235   1.083       .  S
C4227      C4228   1.407       .  A
C4227      H4236   1.083       .  S
C4228      C4234   1.405       .  A
C4228      C4229   1.409       .  A
C4229      C4231   1.409       .  A
C4229      C4230   1.407       .  A
C4230      H4237   1.083       .  S
C4231      C4232   1.405       .  A
C4231      H4238   1.083       .  S
C4232      C4233   1.403       .  A
C4232      H4239   1.083       .  S
C4233      C4234   1.413       .  A
C4234      H4240   1.084       .  S
C4241      C4242   1.402       .  A
C4241      C4246   1.414       .  A
C4242      C4243   1.403       .  A
C4242      H4251   1.083       .  S
C4243      C4244   1.408       .  A
C4243      H4252   1.083       .  S
C4244      C4250   1.406       .  A
C4244      C4245   1.409       .  A
C4245      C4247   1.408       .  A
C4245      C4246   1.405       .  A
C4246      H4253   1.083       .  S
C4247      C4248   1.403       .  A
C4247      H4254   1.083       .  S
C4248      C4249   1.403       .  A
C4248      H4255   1.083       .  S
C4249      C4250   1.414       .  A
C4250      H4256   1.083       .  S
C4257      C4258   1.403       .  A
C4257      C4262   1.415       .  A
C4258      C4259   1.406       .  A
C4258      H4267   1.083       .  S
C4259      C4260   1.409       .  A
C4259      H4268   1.083       .  S
C4260      C4266   1.408       .  A
C4260      C4261   1.409       .  A
C4261      C4263   1.408       .  A
C4261      C4262   1.406       .  A
C4262      H4269   1.084       .  S
C4263      C4264   1.403       .  A
C4263      H4270   1.083       .  S
C4264      C4265   1.402       .  A
C4264      H4271   1.083       .  S
C4265      C4266   1.415       .  A
C4266      H4272   1.084       .  S
C4273      C4274   1.405       .  A
C4273      C4278   1.400       .  A
C4274      C4275   1.396       .  A
C4274      H4283   1.083       .  S
C4275      C4276   1.401       .  A
C4275      H4284   1.084   1_655  S
C4276      C4282   1.403   1_655  A
C4276      C4277   1.417       .  A
C4277      C4279   1.398       .  A
C4277      C4278   1.398       .  A
C4278      H4285   1.085       .  S
C4279      C4280   1.391       .  A
C4279      H4286   1.084       .  S
C4280      C4281   1.405   1_655  A
C4280      H4287   1.083       .  S
C4281      C4282   1.402       .  A
C4282      H4288   1.084       .  S
C4289      C4290   1.403       .  A
C4289      C4294   1.414       .  A
C4290      C4291   1.405       .  A
C4290      H4299   1.083       .  S
C4291      C4292   1.409       .  A
C4291      H4300   1.083       .  S
C4292      C4298   1.408   1_554  A
C4292      C4293   1.409       .  A
C4293      C4295   1.407   1_554  A
C4293      C4294   1.405       .  A
C4294      H4301   1.084       .  S
C4295      C4296   1.403       .  A
C4295      H4302   1.084       .  S
C4296      C4297   1.402       .  A
C4296      H4303   1.083       .  S
C4297      C4298   1.416       .  A
C4298      H4304   1.084       .  S
C4305      C4306   1.405       .  A
C4305      C4310   1.400       .  A
C4306      C4307   1.396       .  A
C4306      H4315   1.083       .  S
C4307      C4308   1.401   1_554  A
C4307      H4316   1.084   1_655  S
C4308      C4314   1.401   1_655  A
C4308      C4309   1.416       .  A
C4309      C4311   1.398       .  A
C4309      C4310   1.396   1_556  A
C4310      H4317   1.085       .  S
C4311      C4312   1.390       .  A
C4311      H4318   1.084       .  S
C4312      C4313   1.405   1_655  A
C4312      H4319   1.083       .  S
C4313      C4314   1.402       .  A
C4314      H4320   1.085       .  S
C4321      C4322   1.402       .  A
C4321      C4326   1.413       .  A
C4322      C4323   1.404       .  A
C4322      H4331   1.083       .  S
C4323      C4324   1.409       .  A
C4323      H4332   1.083       .  S
C4324      C4330   1.404       .  A
C4324      C4325   1.408       .  A
C4325      C4327   1.407       .  A
C4325      C4326   1.402       .  A
C4326      H4333   1.084       .  S
C4327      C4328   1.402       .  A
C4327      H4334   1.084       .  S
C4328      C4329   1.401       .  A
C4328      H4335   1.083       .  S
C4329      C4330   1.415       .  A
C4330      H4336   1.084       .  S
C4337      C4338   1.405       .  A
C4337      C4342   1.404       .  A
C4338      C4339   1.392       .  A
C4338      H4347   1.083       .  S
C4339      C4340   1.399       .  A
C4339      H4348   1.084       .  S
C4340      C4346   1.396       .  A
C4340      C4341   1.415       .  A
C4341      C4343   1.403       .  A
C4341      C4342   1.402       .  A
C4342      H4349   1.085       .  S
C4343      C4344   1.398       .  A
C4343      H4350   1.084       .  S
C4344      C4345   1.404       .  A
C4344      H4351   1.083       .  S
C4345      C4346   1.402       .  A
C4346      H4352   1.085       .  S
C4353      C4354   1.401       .  A
C4353      C4358   1.414       .  A
C4354      C4355   1.400       .  A
C4354      H4363   1.083       .  S
C4355      C4356   1.407       .  A
C4355      H4364   1.083       .  S
C4356      C4362   1.401       .  A
C4356      C4357   1.408       .  A
C4357      C4359   1.410       .  A
C4357      C4358   1.407       .  A
C4358      H4365   1.084       .  S
C4359      C4360   1.406       .  A
C4359      H4366   1.083       .  S
C4360      C4361   1.402       .  A
C4360      H4367   1.083       .  S
C4361      C4362   1.414       .  A
C4362      H4368   1.084       .  S
C4369      C4370   1.402       .  A
C4369      C4374   1.413       .  A
C4370      C4371   1.405       .  A
C4370      H4379   1.083       .  S
C4371      C4372   1.409       .  A
C4371      H4380   1.083       .  S
C4372      C4378   1.405   1_554  A
C4372      C4373   1.409       .  A
C4373      C4375   1.407   1_554  A
C4373      C4374   1.400       .  A
C4374      H4381   1.084       .  S
C4375      C4376   1.399       .  A
C4375      H4382   1.083       .  S
C4376      C4377   1.401       .  A
C4376      H4383   1.083       .  S
C4377      C4378   1.413       .  A
C4378      H4384   1.084       .  S
C4385      C4386   1.406       .  A
C4385      C4390   1.402       .  A
C4386      C4387   1.399   1_556  A
C4386      H4395   1.083       .  S
C4387      C4388   1.402       .  A
C4387      H4396   1.084       .  S
C4388      C4394   1.406       .  A
C4388      C4389   1.415   1_554  A
C4389      C4391   1.398       .  A
C4389      C4390   1.399       .  A
C4390      H4397   1.085       .  S
C4391      C4392   1.392       .  A
C4391      H4398   1.084       .  S
C4392      C4393   1.406   1_556  A
C4392      H4399   1.083       .  S
C4393      C4394   1.404       .  A
C4394      H4400   1.085       .  S
C4401      C4402   1.402       .  A
C4401      C4406   1.414       .  A
C4402      C4403   1.406       .  A
C4402      H4411   1.083       .  S
C4403      C4404   1.410       .  A
C4403      H4412   1.083       .  S
C4404      C4410   1.405       .  A
C4404      C4405   1.408       .  A
C4405      C4407   1.407       .  A
C4405      C4406   1.400       .  A
C4406      H4413   1.084       .  S
C4407      C4408   1.400       .  A
C4407      H4414   1.083       .  S
C4408      C4409   1.401       .  A
C4408      H4415   1.083       .  S
C4409      C4410   1.416       .  A
C4410      H4416   1.084       .  S
C4417      C4418   1.404       .  A
C4417      C4422   1.413       .  A
C4418      C4419   1.408       .  A
C4418      H4427   1.083       .  S
C4419      C4420   1.410       .  A
C4419      H4428   1.083       .  S
C4420      C4426   1.411   1_655  A
C4420      C4421   1.409       .  A
C4421      C4423   1.406   1_655  A
C4421      C4422   1.404       .  A
C4422      H4429   1.084       .  S
C4423      C4424   1.400       .  A
C4423      H4430   1.083       .  S
C4424      C4425   1.402       .  A
C4424      H4431   1.083       .  S
C4425      C4426   1.417       .  A
C4426      H4432   1.083       .  S
C4433      C4434   1.401       .  A
C4433      C4438   1.416       .  A
C4434      C4435   1.400       .  A
C4434      H4443   1.083       .  S
C4435      C4436   1.406   1_556  A
C4435      H4444   1.083       .  S
C4436      C4442   1.402       .  A
C4436      C4437   1.409       .  A
C4437      C4439   1.410       .  A
C4437      C4438   1.407   1_554  A
C4438      H4445   1.083       .  S
C4439      C4440   1.406       .  A
C4439      H4446   1.083       .  S
C4440      C4441   1.403       .  A
C4440      H4447   1.083       .  S
C4441      C4442   1.413       .  A
C4442      H4448   1.084       .  S
C4449      C4450   1.405       .  A
C4449      C4454   1.403       .  A
C4450      C4451   1.391       .  A
C4450      H4459   1.083       .  S
C4451      C4452   1.398       .  A
C4451      H4460   1.084       .  S
C4452      C4458   1.396   1_556  A
C4452      C4453   1.415       .  A
C4453      C4455   1.402   1_556  A
C4453      C4454   1.402       .  A
C4454      H4461   1.084       .  S
C4455      C4456   1.398       .  A
C4455      H4462   1.084       .  S
C4456      C4457   1.404       .  A
C4456      H4463   1.083       .  S
C4457      C4458   1.400       .  A
C4458      H4464   1.085       .  S
C4465      C4466   1.406       .  A
C4465      C4470   1.401       .  A
C4466      C4467   1.396       .  A
C4466      H4475   1.083       .  S
C4467      C4468   1.400       .  A
C4467      H4476   1.084   1_655  S
C4468      C4474   1.403   1_655  A
C4468      C4469   1.416       .  A
C4469      C4471   1.398       .  A
C4469      C4470   1.400       .  A
C4470      H4477   1.085       .  S
C4471      C4472   1.392       .  A
C4471      H4478   1.084       .  S
C4472      C4473   1.405   1_655  A
C4472      H4479   1.083       .  S
C4473      C4474   1.402       .  A
C4474      H4480   1.084       .  S
C4481      C4482   1.403       .  A
C4481      C4486   1.402       .  A
C4482      C4483   1.392       .  A
C4482      H4491   1.083       .  S
C4483      C4484   1.400       .  A
C4483      H4492   1.084       .  S
C4484      C4490   1.396       .  A
C4484      C4485   1.415       .  A
C4485      C4487   1.401       .  A
C4485      C4486   1.399       .  A
C4486      H4493   1.085       .  S
C4487      C4488   1.395       .  A
C4487      H4494   1.084       .  S
C4488      C4489   1.404       .  A
C4488      H4495   1.083       .  S
C4489      C4490   1.400       .  A
C4490      H4496   1.085       .  S
C4497      C4498   1.403       .  A
C4497      C4502   1.415       .  A
C4498      C4499   1.401       .  A
C4498      H4507   1.083       .  S
C4499      C4500   1.406       .  A
C4499      H4508   1.083       .  S
C4500      C4506   1.405       .  A
C4500      C4501   1.410       .  A
C4501      C4503   1.408       .  A
C4501      C4502   1.408       .  A
C4502      H4509   1.083       .  S
C4503      C4504   1.405       .  A
C4503      H4510   1.083       .  S
C4504      C4505   1.403       .  A
C4504      H4511   1.083       .  S
C4505      C4506   1.412       .  A
C4506      H4512   1.084       .  S
C4513      C4514   1.402       .  A
C4513      C4518   1.413       .  A
C4514      C4515   1.402       .  A
C4514      H4523   1.083       .  S
C4515      C4516   1.408       .  A
C4515      H4524   1.083       .  S
C4516      C4522   1.403       .  A
C4516      C4517   1.408       .  A
C4517      C4519   1.408       .  A
C4517      C4518   1.403       .  A
C4518      H4525   1.084       .  S
C4519      C4520   1.403       .  A
C4519      H4526   1.083       .  S
C4520      C4521   1.401       .  A
C4520      H4527   1.083       .  S
C4521      C4522   1.415       .  A
C4522      H4528   1.083       .  S
C4529      C4530   1.402       .  A
C4529      C4534   1.412       .  A
C4530      C4531   1.405       .  A
C4530      H4539   1.083       .  S
C4531      C4532   1.410       .  A
C4531      H4540   1.083       .  S
C4532      C4538   1.404       .  A
C4532      C4533   1.408       .  A
C4533      C4535   1.406       .  A
C4533      C4534   1.397       .  A
C4534      H4541   1.084       .  S
C4535      C4536   1.398       .  A
C4535      H4542   1.084       .  S
C4536      C4537   1.400       .  A
C4536      H4543   1.083       .  S
C4537      C4538   1.415       .  A
C4538      H4544   1.084       .  S
C4545      C4546   1.405       .  A
C4545      C4550   1.404       .  A
C4546      C4547   1.392       .  A
C4546      H4555   1.083       .  S
C4547      C4548   1.398       .  A
C4547      H4556   1.084       .  S
C4548      C4554   1.398       .  A
C4548      C4549   1.416       .  A
C4549      C4551   1.402       .  A
C4549      C4550   1.404       .  A
C4550      H4557   1.085       .  S
C4551      C4552   1.398       .  A
C4551      H4558   1.084       .  S
C4552      C4553   1.405       .  A
C4552      H4559   1.083       .  S
C4553      C4554   1.400       .  A
C4554      H4560   1.085       .  S
C4561      C4562   1.403       .  A
C4561      C4566   1.413       .  A
C4562      C4563   1.400       .  A
C4562      H4571   1.083       .  S
C4563      C4564   1.406       .  A
C4563      H4572   1.084       .  S
C4564      C4570   1.404       .  A
C4564      C4565   1.410       .  A
C4565      C4567   1.408       .  A
C4565      C4566   1.407       .  A
C4566      H4573   1.084       .  S
C4567      C4568   1.404       .  A
C4567      H4574   1.083       .  S
C4568      C4569   1.403       .  A
C4568      H4575   1.083       .  S
C4569      C4570   1.412       .  A
C4570      H4576   1.084       .  S
C4577      C4578   1.404       .  A
C4577      C4582   1.402       .  A
C4578      C4579   1.396       .  A
C4578      H4587   1.083       .  S
C4579      C4580   1.401       .  A
C4579      H4588   1.084       .  S
C4580      C4586   1.401       .  A
C4580      C4581   1.415       .  A
C4581      C4583   1.399       .  A
C4581      C4582   1.399       .  A
C4582      H4589   1.085       .  S
C4583      C4584   1.393       .  A
C4583      H4590   1.084       .  S
C4584      C4585   1.405       .  A
C4584      H4591   1.083       .  S
C4585      C4586   1.402       .  A
C4586      H4592   1.085       .  S
C4593      C4594   1.399       .  A
C4593      C4598   1.412       .  A
C4594      C4595   1.399       .  A
C4594      H4603   1.083       .  S
C4595      C4596   1.407       .  A
C4595      H4604   1.083       .  S
C4596      C4602   1.396   1_655  A
C4596      C4597   1.407       .  A
C4597      C4599   1.408   1_655  A
C4597      C4598   1.398       .  A
C4598      H4605   1.084       .  S
C4599      C4600   1.402       .  A
C4599      H4606   1.083       .  S
C4600      C4601   1.399       .  A
C4600      H4607   1.083       .  S
C4601      C4602   1.414       .  A
C4602      H4608   1.084       .  S
C4609      C4610   1.405   1_455  A
C4609      C4614   1.402       .  A
C4610      C4611   1.390       .  A
C4610      H4619   1.083       .  S
C4611      C4612   1.398       .  A
C4611      H4620   1.084       .  S
C4612      C4618   1.397       .  A
C4612      C4613   1.416       .  A
C4613      C4615   1.402       .  A
C4613      C4614   1.403   1_655  A
C4614      H4621   1.084       .  S
C4615      C4616   1.398       .  A
C4615      H4622   1.084   1_655  S
C4616      C4617   1.404       .  A
C4616      H4623   1.083       .  S
C4617      C4618   1.400       .  A
C4618      H4624   1.085       .  S
C4625      C4626   1.405       .  A
C4625      C4630   1.405       .  A
C4626      C4627   1.391       .  A
C4626      H4635   1.083       .  S
C4627      C4628   1.399       .  A
C4627      H4636   1.084       .  S
C4628      C4634   1.396       .  A
C4628      C4629   1.415       .  A
C4629      C4631   1.403       .  A
C4629      C4630   1.403       .  A
C4630      H4637   1.085       .  S
C4631      C4632   1.399       .  A
C4631      H4638   1.084       .  S
C4632      C4633   1.405       .  A
C4632      H4639   1.083       .  S
C4633      C4634   1.402       .  A
C4634      H4640   1.085       .  S
C4641      C4642   1.403       .  A
C4641      C4646   1.415       .  A
C4642      C4643   1.403       .  A
C4642      H4651   1.083       .  S
C4643      C4644   1.407       .  A
C4643      H4652   1.083       .  S
C4644      C4650   1.406       .  A
C4644      C4645   1.409       .  A
C4645      C4647   1.408       .  A
C4645      C4646   1.407       .  A
C4646      H4653   1.084       .  S
C4647      C4648   1.404       .  A
C4647      H4654   1.083       .  S
C4648      C4649   1.403       .  A
C4648      H4655   1.083       .  S
C4649      C4650   1.413       .  A
C4650      H4656   1.084       .  S
C4657      C4658   1.401       .  A
C4657      C4662   1.415       .  A
C4658      C4659   1.404       .  A
C4658      H4667   1.083       .  S
C4659      C4660   1.409       .  A
C4659      H4668   1.083       .  S
C4660      C4666   1.403       .  A
C4660      C4661   1.407       .  A
C4661      C4663   1.409       .  A
C4661      C4662   1.402       .  A
C4662      H4669   1.084       .  S
C4663      C4664   1.403       .  A
C4663      H4670   1.083       .  S
C4664      C4665   1.400       .  A
C4664      H4671   1.083       .  S
C4665      C4666   1.416       .  A
C4666      H4672   1.084       .  S
C4673      C4674   1.401       .  A
C4673      C4678   1.418       .  A
C4674      C4675   1.402       .  A
C4674      H4683   1.083       .  S
C4675      C4676   1.408       .  A
C4675      H4684   1.083       .  S
C4676      C4682   1.401       .  A
C4676      C4677   1.407       .  A
C4677      C4679   1.411       .  A
C4677      C4678   1.406       .  A
C4678      H4685   1.083       .  S
C4679      C4680   1.407       .  A
C4679      H4686   1.083       .  S
C4680      C4681   1.401       .  A
C4680      H4687   1.083       .  S
C4681      C4682   1.416       .  A
C4682      H4688   1.084       .  S
C4689      C4690   1.402       .  A
C4689      C4694   1.413       .  A
C4690      C4691   1.404       .  A
C4690      H4699   1.083       .  S
C4691      C4692   1.409   1_565  A
C4691      H4700   1.083       .  S
C4692      C4698   1.404       .  A
C4692      C4693   1.408       .  A
C4693      C4695   1.408       .  A
C4693      C4694   1.402   1_545  A
C4694      H4701   1.084       .  S
C4695      C4696   1.402       .  A
C4695      H4702   1.083       .  S
C4696      C4697   1.401       .  A
C4696      H4703   1.083       .  S
C4697      C4698   1.416       .  A
C4698      H4704   1.083       .  S
C4705      C4706   1.402       .  A
C4705      C4710   1.415       .  A
C4706      C4707   1.400       .  A
C4706      H4715   1.083       .  S
C4707      C4708   1.406   1_556  A
C4707      H4716   1.083       .  S
C4708      C4714   1.403       .  A
C4708      C4709   1.409       .  A
C4709      C4711   1.409       .  A
C4709      C4710   1.409   1_554  A
C4710      H4717   1.083       .  S
C4711      C4712   1.406       .  A
C4711      H4718   1.083       .  S
C4712      C4713   1.404       .  A
C4712      H4719   1.083       .  S
C4713      C4714   1.412       .  A
C4714      H4720   1.084       .  S
C4721      C4722   1.401       .  A
C4721      C4726   1.413       .  A
C4722      C4723   1.406       .  A
C4722      H4731   1.083       .  S
C4723      C4724   1.410       .  A
C4723      H4732   1.083       .  S
C4724      C4730   1.404       .  A
C4724      C4725   1.408       .  A
C4725      C4727   1.406       .  A
C4725      C4726   1.397       .  A
C4726      H4733   1.084       .  S
C4727      C4728   1.399       .  A
C4727      H4734   1.083       .  S
C4728      C4729   1.400       .  A
C4728      H4735   1.083       .  S
C4729      C4730   1.415       .  A
C4730      H4736   1.084       .  S
C4737      C4738   1.402       .  A
C4737      C4742   1.411       .  A
C4738      C4739   1.404       .  A
C4738      H4747   1.083       .  S
C4739      C4740   1.409       .  A
C4739      H4748   1.083       .  S
C4740      C4746   1.405       .  A
C4740      C4741   1.409       .  A
C4741      C4743   1.406       .  A
C4741      C4742   1.401       .  A
C4742      H4749   1.084       .  S
C4743      C4744   1.400       .  A
C4743      H4750   1.083       .  S
C4744      C4745   1.401       .  A
C4744      H4751   1.083       .  S
C4745      C4746   1.414       .  A
C4746      H4752   1.083       .  S
C4753      C4754   1.403       .  A
C4753      C4758   1.415       .  A
C4754      C4755   1.402       .  A
C4754      H4763   1.083       .  S
C4755      C4756   1.406       .  A
C4755      H4764   1.084       .  S
C4756      C4762   1.406       .  A
C4756      C4757   1.410       .  A
C4757      C4759   1.408       .  A
C4757      C4758   1.409       .  A
C4758      H4765   1.084       .  S
C4759      C4760   1.405       .  A
C4759      H4766   1.084       .  S
C4760      C4761   1.403       .  A
C4760      H4767   1.083       .  S
C4761      C4762   1.412       .  A
C4762      H4768   1.084       .  S
C4769      C4770   1.405       .  A
C4769      C4774   1.401       .  A
C4770      C4771   1.389       .  A
C4770      H4779   1.083       .  S
C4771      C4772   1.397       .  A
C4771      H4780   1.084       .  S
C4772      C4778   1.394   1_556  A
C4772      C4773   1.416       .  A
C4773      C4775   1.402   1_556  A
C4773      C4774   1.401       .  A
C4774      H4781   1.084       .  S
C4775      C4776   1.396       .  A
C4775      H4782   1.084       .  S
C4776      C4777   1.404       .  A
C4776      H4783   1.083       .  S
C4777      C4778   1.398       .  A
C4778      H4784   1.085       .  S
C4785      C4786   1.403       .  A
C4785      C4790   1.412       .  A
C4786      C4787   1.401       .  A
C4786      H4795   1.083       .  S
C4787      C4788   1.406   1_565  A
C4787      H4796   1.083       .  S
C4788      C4794   1.403       .  A
C4788      C4789   1.410       .  A
C4789      C4791   1.407       .  A
C4789      C4790   1.404   1_545  A
C4790      H4797   1.084       .  S
C4791      C4792   1.401       .  A
C4791      H4798   1.083       .  S
C4792      C4793   1.402       .  A
C4792      H4799   1.083       .  S
C4793      C4794   1.411       .  A
C4794      H4800   1.084       .  S
C4801      C4802   1.402       .  A
C4801      C4806   1.416       .  A
C4802      C4803   1.405       .  A
C4802      H4811   1.083       .  S
C4803      C4804   1.409       .  A
C4803      H4812   1.083       .  S
C4804      C4810   1.408       .  A
C4804      C4805   1.409       .  A
C4805      C4807   1.409       .  A
C4805      C4806   1.407       .  A
C4806      H4813   1.084       .  S
C4807      C4808   1.405       .  A
C4807      H4814   1.083       .  S
C4808      C4809   1.403       .  A
C4808      H4815   1.083       .  S
C4809      C4810   1.415       .  A
C4810      H4816   1.084       .  S
C4817      C4818   1.402       .  A
C4817      C4822   1.412       .  A
C4818      C4819   1.404       .  A
C4818      H4827   1.082       .  S
C4819      C4820   1.409       .  A
C4819      H4828   1.084       .  S
C4820      C4826   1.403       .  A
C4820      C4821   1.409       .  A
C4821      C4823   1.406       .  A
C4821      C4822   1.399       .  A
C4822      H4829   1.084       .  S
C4823      C4824   1.399       .  A
C4823      H4830   1.084       .  S
C4824      C4825   1.400       .  A
C4824      H4831   1.083       .  S
C4825      C4826   1.414       .  A
C4826      H4832   1.084       .  S
C4833      C4834   1.401       .  A
C4833      C4838   1.413       .  A
C4834      C4835   1.405       .  A
C4834      H4843   1.083       .  S
C4835      C4836   1.410       .  A
C4835      H4844   1.083       .  S
C4836      C4842   1.402       .  A
C4836      C4837   1.407       .  A
C4837      C4839   1.407       .  A
C4837      C4838   1.396       .  A
C4838      H4845   1.084       .  S
C4839      C4840   1.398       .  A
C4839      H4846   1.083       .  S
C4840      C4841   1.399       .  A
C4840      H4847   1.083       .  S
C4841      C4842   1.414       .  A
C4842      H4848   1.084       .  S
C4849      C4850   1.405       .  A
C4849      C4854   1.403       .  A
C4850      C4851   1.392       .  A
C4850      H4859   1.083       .  S
C4851      C4852   1.399       .  A
C4851      H4860   1.084       .  S
C4852      C4858   1.398   1_565  A
C4852      C4853   1.415       .  A
C4853      C4855   1.402   1_565  A
C4853      C4854   1.403       .  A
C4854      H4861   1.085       .  S
C4855      C4856   1.398       .  A
C4855      H4862   1.084       .  S
C4856      C4857   1.405       .  A
C4856      H4863   1.083       .  S
C4857      C4858   1.402       .  A
C4858      H4864   1.085   1_545  S
C4865      C4866   1.404       .  A
C4865      C4870   1.416       .  A
C4866      C4867   1.405       .  A
C4866      H4875   1.083       .  S
C4867      C4868   1.408   1_556  A
C4867      H4876   1.083       .  S
C4868      C4874   1.410       .  A
C4868      C4869   1.410       .  A
C4869      C4871   1.408       .  A
C4869      C4870   1.411   1_554  A
C4870      H4877   1.083       .  S
C4871      C4872   1.405       .  A
C4871      H4878   1.083       .  S
C4872      C4873   1.404       .  A
C4872      H4879   1.083       .  S
C4873      C4874   1.415       .  A
C4874      H4880   1.083       .  S
C4881      C4882   1.405       .  A
C4881      C4886   1.401   1_545  A
C4882      C4883   1.394       .  A
C4882      H4891   1.083       .  S
C4883      C4884   1.400   1_545  A
C4883      H4892   1.084   1_556  S
C4884      C4890   1.400   1_556  A
C4884      C4885   1.416       .  A
C4885      C4887   1.399       .  A
C4885      C4886   1.398       .  A
C4886      H4893   1.085       .  S
C4887      C4888   1.393       .  A
C4887      H4894   1.084       .  S
C4888      C4889   1.406   1_556  A
C4888      H4895   1.083       .  S
C4889      C4890   1.401       .  A
C4890      H4896   1.085       .  S
C4897      C4898   1.401       .  A
C4897      C4902   1.414       .  A
C4898      C4899   1.402       .  A
C4898      H4907   1.083       .  S
C4899      C4900   1.409       .  A
C4899      H4908   1.083       .  S
C4900      C4906   1.401       .  A
C4900      C4901   1.407       .  A
C4901      C4903   1.409       .  A
C4901      C4902   1.401       .  A
C4902      H4909   1.084       .  S
C4903      C4904   1.403       .  A
C4903      H4910   1.083       .  S
C4904      C4905   1.400       .  A
C4904      H4911   1.083       .  S
C4905      C4906   1.415       .  A
C4906      H4912   1.084       .  S
C4913      C4914   1.406       .  A
C4913      C4918   1.402       .  A
C4914      C4915   1.392       .  A
C4914      H4923   1.083       .  S
C4915      C4916   1.398       .  A
C4915      H4924   1.084       .  S
C4916      C4922   1.401       .  A
C4916      C4917   1.416       .  A
C4917      C4919   1.400       .  A
C4917      C4918   1.404       .  A
C4918      H4925   1.085       .  S
C4919      C4920   1.396       .  A
C4919      H4926   1.084       .  S
C4920      C4921   1.406       .  A
C4920      H4927   1.083       .  S
C4921      C4922   1.402       .  A
C4922      H4928   1.085       .  S
C4929      C4930   1.403       .  A
C4929      C4934   1.414       .  A
C4930      C4931   1.405       .  A
C4930      H4939   1.083       .  S
C4931      C4932   1.409       .  A
C4931      H4940   1.084       .  S
C4932      C4938   1.407       .  A
C4932      C4933   1.409       .  A
C4933      C4935   1.407       .  A
C4933      C4934   1.403       .  A
C4934      H4941   1.084       .  S
C4935      C4936   1.401       .  A
C4935      H4942   1.084       .  S
C4936      C4937   1.402       .  A
C4936      H4943   1.083       .  S
C4937      C4938   1.414       .  A
C4938      H4944   1.084       .  S
C4945      C4946   1.403       .  A
C4945      C4950   1.416       .  A
C4946      C4947   1.400       .  A
C4946      H4955   1.083       .  S
C4947      C4948   1.405   1_556  A
C4947      H4956   1.084       .  S
C4948      C4954   1.404       .  A
C4948      C4949   1.409       .  A
C4949      C4951   1.410       .  A
C4949      C4950   1.411   1_554  A
C4950      H4957   1.084       .  S
C4951      C4952   1.408       .  A
C4951      H4958   1.083       .  S
C4952      C4953   1.404       .  A
C4952      H4959   1.083       .  S
C4953      C4954   1.413       .  A
C4954      H4960   1.084       .  S
C4961      C4962   1.404       .  A
C4961      C4966   1.406       .  A
C4962      C4963   1.391       .  A
C4962      H4971   1.083       .  S
C4963      C4964   1.398       .  A
C4963      H4972   1.084       .  S
C4964      C4970   1.397   1_556  A
C4964      C4965   1.415       .  A
C4965      C4967   1.404   1_556  A
C4965      C4966   1.406       .  A
C4966      H4973   1.084       .  S
C4967      C4968   1.400       .  A
C4967      H4974   1.084       .  S
C4968      C4969   1.405       .  A
C4968      H4975   1.083       .  S
C4969      C4970   1.401       .  A
C4970      H4976   1.085       .  S
C4977      C4978   1.402       .  A
C4977      C4982   1.414       .  A
C4978      C4979   1.402       .  A
C4978      H4987   1.083       .  S
C4979      C4980   1.408       .  A
C4979      H4988   1.083       .  S
C4980      C4986   1.401       .  A
C4980      C4981   1.408       .  A
C4981      C4983   1.409       .  A
C4981      C4982   1.403       .  A
C4982      H4989   1.084       .  S
C4983      C4984   1.403       .  A
C4983      H4990   1.083       .  S
C4984      C4985   1.400       .  A
C4984      H4991   1.083       .  S
C4985      C4986   1.415       .  A
C4986      H4992   1.083       .  S
C4993      C4994   1.401       .  A
C4993      C4998   1.415       .  A
C4994      C4995   1.398       .  A
C4994      H5003   1.083       .  S
C4995      C4996   1.406   1_565  A
C4995      H5004   1.084       .  S
C4996      C5002   1.399       .  A
C4996      C4997   1.408       .  A
C4997      C4999   1.410       .  A
C4997      C4998   1.406   1_545  A
C4998      H5005   1.084       .  S
C4999      C5000   1.407       .  A
C4999      H5006   1.083       .  S
C5000      C5001   1.402       .  A
C5000      H5007   1.083       .  S
C5001      C5002   1.413       .  A
C5002      H5008   1.084       .  S
C5009      C5010   1.403       .  A
C5009      C5014   1.413       .  A
C5010      C5011   1.405       .  A
C5010      H5019   1.083       .  S
C5011      C5012   1.409   1_556  A
C5011      H5020   1.083       .  S
C5012      C5018   1.406       .  A
C5012      C5013   1.409       .  A
C5013      C5015   1.407       .  A
C5013      C5014   1.404   1_554  A
C5014      H5021   1.084       .  S
C5015      C5016   1.402       .  A
C5015      H5022   1.084       .  S
C5016      C5017   1.401       .  A
C5016      H5023   1.083       .  S
C5017      C5018   1.414       .  A
C5018      H5024   1.084       .  S
C5025      C5026   1.404       .  A
C5025      C5030   1.403       .  A
C5026      C5027   1.393       .  A
C5026      H5035   1.083       .  S
C5027      C5028   1.399       .  A
C5027      H5036   1.085       .  S
C5028      C5034   1.399   1_556  A
C5028      C5029   1.416       .  A
C5029      C5031   1.401   1_556  A
C5029      C5030   1.402       .  A
C5030      H5037   1.085       .  S
C5031      C5032   1.396       .  A
C5031      H5038   1.084       .  S
C5032      C5033   1.406       .  A
C5032      H5039   1.082       .  S
C5033      C5034   1.401       .  A
C5034      H5040   1.086   1_554  S
C5041      C5042   1.406       .  A
C5041      C5046   1.402       .  A
C5042      C5043   1.398       .  A
C5042      H5051   1.083       .  S
C5043      C5044   1.402       .  A
C5043      H5052   1.084   1_565  S
C5044      C5050   1.405   1_565  A
C5044      C5045   1.415       .  A
C5045      C5047   1.399       .  A
C5045      C5046   1.400       .  A
C5046      H5053   1.085       .  S
C5047      C5048   1.393       .  A
C5047      H5054   1.084       .  S
C5048      C5049   1.405   1_565  A
C5048      H5055   1.083       .  S
C5049      C5050   1.404       .  A
C5050      H5056   1.084       .  S
C5057      C5058   1.404       .  A
C5057      C5062   1.398       .  A
C5058      C5059   1.395       .  A
C5058      H5067   1.083       .  S
C5059      C5060   1.401       .  A
C5059      H5068   1.084       .  S
C5060      C5066   1.400       .  A
C5060      C5061   1.417       .  A
C5061      C5063   1.399       .  A
C5061      C5062   1.397       .  A
C5062      H5069   1.085       .  S
C5063      C5064   1.391       .  A
C5063      H5070   1.084       .  S
C5064      C5065   1.403       .  A
C5064      H5071   1.084       .  S
C5065      C5066   1.400       .  A
C5066      H5072   1.085       .  S
C5073      C5074   1.402       .  A
C5073      C5078   1.414       .  A
C5074      C5075   1.401       .  A
C5074      H5083   1.083       .  S
C5075      C5076   1.406       .  A
C5075      H5084   1.083       .  S
C5076      C5082   1.402       .  A
C5076      C5077   1.409       .  A
C5077      C5079   1.408       .  A
C5077      C5078   1.405       .  A
C5078      H5085   1.084       .  S
C5079      C5080   1.403       .  A
C5079      H5086   1.083       .  S
C5080      C5081   1.402       .  A
C5080      H5087   1.083       .  S
C5081      C5082   1.412       .  A
C5082      H5088   1.084       .  S
C5089      C5090   1.402       .  A
C5089      C5094   1.416       .  A
C5090      C5091   1.404       .  A
C5090      H5099   1.083       .  S
C5091      C5092   1.408       .  A
C5091      H5100   1.083       .  S
C5092      C5098   1.405       .  A
C5092      C5093   1.409       .  A
C5093      C5095   1.410       .  A
C5093      C5094   1.406       .  A
C5094      H5101   1.084       .  S
C5095      C5096   1.405       .  A
C5095      H5102   1.083       .  S
C5096      C5097   1.401       .  A
C5096      H5103   1.083       .  S
C5097      C5098   1.414       .  A
C5098      H5104   1.084       .  S
C5105      C5106   1.403       .  A
C5105      C5110   1.413       .  A
C5106      C5107   1.405       .  A
C5106      H5115   1.083       .  S
C5107      C5108   1.408       .  A
C5107      H5116   1.084       .  S
C5108      C5114   1.409       .  A
C5108      C5109   1.410       .  A
C5109      C5111   1.406       .  A
C5109      C5110   1.406       .  A
C5110      H5117   1.084       .  S
C5111      C5112   1.402       .  A
C5111      H5118   1.084       .  S
C5112      C5113   1.403       .  A
C5112      H5119   1.083       .  S
C5113      C5114   1.414       .  A
C5114      H5120   1.084       .  S
C5121      C5122   1.402       .  A
C5121      C5126   1.415       .  A
C5122      C5123   1.399       .  A
C5122      H5131   1.083       .  S
C5123      C5124   1.405       .  A
C5123      H5132   1.084       .  S
C5124      C5130   1.402       .  A
C5124      C5125   1.409       .  A
C5125      C5127   1.410       .  A
C5125      C5126   1.409       .  A
C5126      H5133   1.084       .  S
C5127      C5128   1.407       .  A
C5127      H5134   1.083       .  S
C5128      C5129   1.403       .  A
C5128      H5135   1.083       .  S
C5129      C5130   1.412       .  A
C5130      H5136   1.084       .  S
C5137      C5138   1.403       .  A
C5137      C5142   1.403       .  A
C5138      C5139   1.390       .  A
C5138      H5147   1.084       .  S
C5139      C5140   1.398       .  A
C5139      H5148   1.084       .  S
C5140      C5146   1.396       .  A
C5140      C5141   1.416       .  A
C5141      C5143   1.402       .  A
C5141      C5142   1.403       .  A
C5142      H5149   1.084       .  S
C5143      C5144   1.398       .  A
C5143      H5150   1.084       .  S
C5144      C5145   1.405       .  A
C5144      H5151   1.083       .  S
C5145      C5146   1.398       .  A
C5146      H5152   1.085       .  S
C5153      C5154   1.405       .  A
C5153      C5158   1.403       .  A
C5154      C5155   1.390       .  A
C5154      H5163   1.083       .  S
C5155      C5156   1.397       .  A
C5155      H5164   1.084       .  S
C5156      C5162   1.396       .  A
C5156      C5157   1.416       .  A
C5157      C5159   1.402       .  A
C5157      C5158   1.403       .  A
C5158      H5165   1.084       .  S
C5159      C5160   1.397       .  A
C5159      H5166   1.084       .  S
C5160      C5161   1.405       .  A
C5160      H5167   1.083       .  S
C5161      C5162   1.399       .  A
C5162      H5168   1.085       .  S
C5169      C5170   1.403       .  A
C5169      C5174   1.416       .  A
C5170      C5171   1.404       .  A
C5170      H5179   1.083       .  S
C5171      C5172   1.409   1_565  A
C5171      H5180   1.083       .  S
C5172      C5178   1.406       .  A
C5172      C5173   1.408       .  A
C5173      C5175   1.409       .  A
C5173      C5174   1.407   1_545  A
C5174      H5181   1.084       .  S
C5175      C5176   1.405       .  A
C5175      H5182   1.084       .  S
C5176      C5177   1.402       .  A
C5176      H5183   1.083       .  S
C5177      C5178   1.416       .  A
C5178      H5184   1.084       .  S
C5185      C5186   1.405       .  A
C5185      C5190   1.404       .  A
C5186      C5187   1.391       .  A
C5186      H5195   1.083       .  S
C5187      C5188   1.397       .  A
C5187      H5196   1.084       .  S
C5188      C5194   1.398   1_565  A
C5188      C5189   1.416       .  A
C5189      C5191   1.403   1_565  A
C5189      C5190   1.406       .  A
C5190      H5197   1.084       .  S
C5191      C5192   1.399       .  A
C5191      H5198   1.084       .  S
C5192      C5193   1.406       .  A
C5192      H5199   1.083       .  S
C5193      C5194   1.400       .  A
C5194      H5200   1.085   1_545  S
C5201      C5202   1.406       .  A
C5201      C5206   1.402       .  A
C5202      C5203   1.389       .  A
C5202      H5211   1.083       .  S
C5203      C5204   1.397       .  A
C5203      H5212   1.084       .  S
C5204      C5210   1.396       .  A
C5204      C5205   1.416       .  A
C5205      C5207   1.401       .  A
C5205      C5206   1.404       .  A
C5206      H5213   1.084       .  S
C5207      C5208   1.397       .  A
C5207      H5214   1.084       .  S
C5208      C5209   1.405       .  A
C5208      H5215   1.083       .  S
C5209      C5210   1.399       .  A
C5210      H5216   1.085       .  S
C5217      C5218   1.402       .  A
C5217      C5222   1.414       .  A
C5218      C5219   1.403       .  A
C5218      H5227   1.083       .  S
C5219      C5220   1.408       .  A
C5219      H5228   1.083       .  S
C5220      C5226   1.404       .  A
C5220      C5221   1.408       .  A
C5221      C5223   1.408       .  A
C5221      C5222   1.405       .  A
C5222      H5229   1.083       .  S
C5223      C5224   1.403       .  A
C5223      H5230   1.083       .  S
C5224      C5225   1.402       .  A
C5224      H5231   1.083       .  S
C5225      C5226   1.415       .  A
C5226      H5232   1.083       .  S
