geometry optimzed in LAMMPS
_audit_creation_date              2020-11-30 
_audit_creation_method            'lammps2cif' 
_symmetry_space_group_name_H-M    'P1' 
_symmetry_Int_Tables_number       1 
_symmetry_cell_setting            triclinic 
loop_ 
_symmetry_equiv_pos_as_xyz 
  x,y,z 
_cell_length_a                    58.35692896574369 
_cell_length_b                    58.2824350681962 
_cell_length_c                    58.278658745857925 
_cell_angle_alpha                 89.91521083776563 
_cell_angle_beta                  89.99965723241183 
_cell_angle_gamma                 89.63703979650006 
loop_ 
_atom_site_label 
_atom_site_type_symbol 
_atom_site_fract_x 
_atom_site_fract_y 
_atom_site_fract_z 
_atom_site_charge 
N1          N  0.33863679  0.87737846  0.73568265    -0.07160
N2          N  0.32493521  0.88566536  0.75161652    -0.59280
N3          N  0.36366134  0.82885782  0.71910498    -0.06840
N4          N  0.36224168  0.80710465  0.72531517    -0.61410
N5          N  0.37617611  0.84024597  0.73379066    -0.06440
N6          N  0.38415560  0.82660809  0.74979901    -0.59260
N7          N  0.32684391  0.86642171  0.72010042    -0.06120
N8          N  0.30480203  0.86691940  0.72507692    -0.61760
C9          C  0.30381543  0.87912938  0.74476284     0.95010
C10         C  0.37528260  0.80606232  0.74450624     0.94790
N11         N  0.37310191  0.83911024  0.64902030    -0.07350
N12         N  0.38102388  0.82252195  0.63527170    -0.59860
N13         N  0.32579267  0.86652659  0.66728802    -0.05470
N14         N  0.30333700  0.86720121  0.66658264    -0.61110
N15         N  0.33507709  0.87822155  0.65029582    -0.07380
N16         N  0.31822240  0.88719566  0.63750184    -0.60130
N17         N  0.36174495  0.82950504  0.66605598    -0.05110
N18         N  0.36148183  0.80707466  0.66437198    -0.61200
Mn19       Mn  0.34432168  0.84760212  0.69300735     1.18440
C20         C  0.37333928  0.80267212  0.64525986     0.97100
C21         C  0.29853654  0.88003022  0.64815914     0.97760
N22         N  0.41314236  0.87676311  0.73508362    -0.07400
N23         N  0.42670374  0.86866259  0.75118911    -0.63710
N24         N  0.38800277  0.92582226  0.72057333    -0.06200
N25         N  0.38942407  0.94757949  0.72653689    -0.64380
N26         N  0.37627598  0.91427091  0.73581848    -0.06900
N27         N  0.36927432  0.92779494  0.75244579    -0.63970
N28         N  0.42487878  0.88823676  0.71983492    -0.05800
N29         N  0.44683136  0.88844819  0.72543237    -0.64660
Mn30       Mn  0.37597766  0.87715861  0.73536350     1.10660
C31         C  0.44777818  0.87586463  0.74499538     0.98320
C32         C  0.37731806  0.94853783  0.74625864     0.98390
N33         N  0.37607105  0.91822036  0.65090856    -0.06910
N34         N  0.36697375  0.93573138  0.63902501    -0.62290
N35         N  0.42395566  0.88972467  0.66676673    -0.06230
N36         N  0.44633912  0.88845002  0.66596765    -0.59010
N37         N  0.41427721  0.87873481  0.64956442    -0.07540
N38         N  0.43086387  0.86952958  0.63657965    -0.61850
N39         N  0.38817785  0.92673574  0.66794688    -0.06530
N40         N  0.38769810  0.94916495  0.66809180    -0.59040
Mn41       Mn  0.37463168  0.87866923  0.64803367     1.20190
Mn42       Mn  0.40646703  0.90775924  0.69354175     1.10090
Cl43       Cl  0.37531584  0.87781150  0.69190138    -0.87010
C44         C  0.37436739  0.95498484  0.65040831     0.95320
C45         C  0.45077630  0.87578887  0.64741469     0.95120
N46         N  0.21091384  0.86362446  0.83708770    -0.07160
N47         N  0.21650584  0.86524958  0.81519602    -0.59280
N48         N  0.22049021  0.83739285  0.88765778    -0.06840
N49         N  0.23436419  0.82294394  0.89796332    -0.61410
N50         N  0.20605241  0.82655676  0.87443808    -0.06440
N51         N  0.21016296  0.80427481  0.87498710    -0.59260
N52         N  0.22621387  0.87376591  0.84987433    -0.06120
N53         N  0.24250743  0.88263742  0.83715169    -0.61760
C54         C  0.23619917  0.87745888  0.81552027     0.95010
C55         C  0.22777041  0.80236617  0.88998861     0.94790
N56         N  0.20645225  0.88798296  0.93449882    -0.07350
N57         N  0.21221323  0.88965994  0.95639690    -0.59860
N58         N  0.22569754  0.91111190  0.88639226    -0.05470
N59         N  0.24302446  0.92331347  0.87908687    -0.61110
N60         N  0.21045933  0.92417473  0.89657082    -0.07380
N61         N  0.21726743  0.94575492  0.89670008    -0.60130
N62         N  0.22087625  0.87452590  0.92371703    -0.05110
N63         N  0.23632490  0.86631049  0.93783126    -0.61200
Mn64       Mn  0.22365871  0.87410334  0.88691855     1.18440
C65         C  0.23079179  0.87567777  0.95819797     0.97100
C66         C  0.23754134  0.94489763  0.88541263     0.97760
N67         N  0.15390461  0.82924117  0.86927540    -0.07400
N68         N  0.15136707  0.80694251  0.86826686    -0.63710
N69         N  0.14087512  0.87779450  0.84204823    -0.06200
N70         N  0.12881349  0.88663146  0.82460830    -0.64380
N71         N  0.15821527  0.86594527  0.83353535    -0.06900
N72         N  0.15853207  0.86649466  0.81105860    -0.63970
N73         N  0.13692196  0.83933691  0.88033896    -0.05800
N74         N  0.12234449  0.82314373  0.88733914    -0.64660
Mn75       Mn  0.18216498  0.84615508  0.85327912     1.10660
C76         C  0.13167835  0.80301680  0.87920529     0.98320
C77         C  0.14031458  0.87932548  0.80536694     0.98390
N78         N  0.15727622  0.92724060  0.89449070    -0.06910
N79         N  0.15645096  0.94973881  0.89441305    -0.62290
N80         N  0.13687395  0.88060028  0.92125624    -0.06230
N81         N  0.12239889  0.87373720  0.93767946    -0.59010
N82         N  0.15386585  0.89165983  0.93114165    -0.07540
N83         N  0.15150388  0.89264627  0.95342544    -0.61850
N84         N  0.14054481  0.91825659  0.88227369    -0.06530
N85         N  0.12805039  0.93527510  0.87325536    -0.59040
Mn86       Mn  0.18180207  0.90806299  0.91431618     1.20190
Mn87       Mn  0.13703412  0.87899004  0.88150706     1.10090
Cl88       Cl  0.18084873  0.87688325  0.88397458    -0.87010
C89         C  0.13834796  0.95475651  0.88123593     0.95320
C90         C  0.13199908  0.88161041  0.95773923     0.95120
N91         N  0.41906473  0.71761183  0.89633049    -0.07160
N92         N  0.44048554  0.72488976  0.89645531    -0.59280
N93         N  0.37094040  0.72896792  0.92525554    -0.06840
N94         N  0.36258304  0.74368610  0.94019200    -0.61410
N95         N  0.38400786  0.71375174  0.93546659    -0.06440
N96         N  0.38496118  0.71783750  0.95773893    -0.59260
N97         N  0.40571241  0.73271038  0.88630276    -0.06120
N98         N  0.41752951  0.75036763  0.87909264    -0.61760
C99         C  0.43922902  0.74529965  0.88531369     0.95010
C100        C  0.37131670  0.73653120  0.96047592     0.94790
N101        N  0.32111752  0.71195765  0.87806152    -0.07350
N102        N  0.29881926  0.71548683  0.87938612    -0.59860
N103        N  0.36731515  0.73115667  0.85103821    -0.05470
N104        N  0.37538395  0.74706324  0.83738184    -0.61110
N105        N  0.35667732  0.71538973  0.83923453    -0.07380
N106        N  0.35701195  0.72025822  0.81712064    -0.60130
N107        N  0.33212930  0.72735557  0.88999316    -0.05110
N108        N  0.31773543  0.74161530  0.89986467    -0.61200
Mn109      Mn  0.36886279  0.73048518  0.88812077     1.18440
C110        C  0.29699248  0.73386792  0.89338454     0.97100
C111        C  0.36902198  0.73997204  0.81630705     0.97760
N112        N  0.38783376  0.66118406  0.93264706    -0.07400
N113        N  0.38993051  0.65934398  0.95486764    -0.63710
N114        N  0.41316664  0.64646565  0.88378351    -0.06200
N115        N  0.43064640  0.63352686  0.87613127    -0.64380
N116        N  0.42179341  0.66426544  0.89465184    -0.06900
N117        N  0.44417012  0.66385428  0.89460042    -0.63970
N118        N  0.37691754  0.64359408  0.92371454    -0.05800
N119        N  0.37143866  0.62922483  0.94075507    -0.64660
Mn120      Mn  0.40337510  0.68896508  0.91479864     1.10660
C121        C  0.38006487  0.63950427  0.96014460     0.98320
C122        C  0.45004948  0.64493465  0.88313921     0.98390
N123        N  0.35811325  0.66298737  0.83671994    -0.06910
N124        N  0.35651550  0.66246852  0.81432394    -0.62290
N125        N  0.33352685  0.64277855  0.88487658    -0.06230
N126        N  0.31698044  0.62905617  0.89301928    -0.59010
N127        N  0.32354823  0.66013237  0.87426321    -0.07540
N128        N  0.30122338  0.65891990  0.87486579    -0.61850
N129        N  0.37043843  0.64577084  0.84478208    -0.06530
N130        N  0.37753850  0.63308479  0.82700164    -0.59040
Mn131      Mn  0.33978341  0.68752640  0.85685990     1.20190
Mn132      Mn  0.37356833  0.64276010  0.88428920     1.10090
Cl133      Cl  0.37146721  0.68712262  0.88602322    -0.87010
C134        C  0.36838821  0.64387757  0.80802952     0.95320
C135        C  0.29683529  0.63975685  0.88647928     0.95120
N136        N  0.32838356  0.04056094  0.89486418    -0.07160
N137        N  0.30709478  0.03302967  0.89516559    -0.59280
N138        N  0.37668200  0.03052093  0.92418707    -0.06840
N139        N  0.38545013  0.01627582  0.93935672    -0.61410
N140        N  0.36294427  0.04530708  0.93408731    -0.06440
N141        N  0.36184320  0.04132445  0.95634936    -0.59260
N142        N  0.34198329  0.02546214  0.88520975    -0.06120
N143        N  0.33039510  0.00750859  0.87839665    -0.61760
C144        C  0.30870087  0.01236726  0.88470649     0.95010
C145        C  0.37647286  0.02350685  0.95943268     0.94790
N146        N  0.42654931  0.04663139  0.87647895    -0.07350
N147        N  0.44878983  0.04228305  0.87712633    -0.59860
N148        N  0.38080079  0.02660945  0.85010511    -0.05470
N149        N  0.37404343  0.00977427  0.83681689    -0.61110
N150        N  0.39089925  0.04259527  0.83803330    -0.07380
N151        N  0.39136231  0.03703998  0.81610410    -0.60130
N152        N  0.41544809  0.03206068  0.88935704    -0.05110
N153        N  0.42967353  0.01792952  0.89956452    -0.61200
Mn154      Mn  0.37884399  0.02824656  0.88722565     1.18440
C155        C  0.45037489  0.02421869  0.89168186     0.97100
C156        C  0.38039024  0.01671013  0.81568530     0.97760
N157        N  0.35788653  0.09726186  0.93141049    -0.07400
N158        N  0.35611759  0.09815144  0.95368214    -0.63710
N159        N  0.33368919  0.11159706  0.88231659    -0.06200
N160        N  0.31665876  0.12428007  0.87348123    -0.64380
N161        N  0.32467558  0.09364530  0.89267310    -0.06900
N162        N  0.30228796  0.09349262  0.89109521    -0.63970
N163        N  0.36977603  0.11450293  0.92311360    -0.05800
N164        N  0.37643387  0.12757612  0.94083988    -0.64660
Mn165      Mn  0.34317473  0.06941387  0.91321552     1.10660
C166        C  0.36771100  0.11665597  0.95996593     0.98320
C167        C  0.29718724  0.11244047  0.87917268     0.98390
N168        N  0.38861042  0.09550528  0.83549023    -0.06910
N169        N  0.38946448  0.09603084  0.81301857    -0.62290
N170        N  0.41299981  0.11543187  0.88393624    -0.06230
N171        N  0.42929054  0.12904001  0.89260773    -0.59010
N172        N  0.42321974  0.09848061  0.87292455    -0.07540
N173        N  0.44553001  0.09984852  0.87377350    -0.61850
N174        N  0.37594169  0.11232278  0.84389895    -0.06530
N175        N  0.36755457  0.12456762  0.82636335    -0.59040
Mn176      Mn  0.40740168  0.07096997  0.85541104     1.20190
Mn177      Mn  0.37313570  0.11540166  0.88339792     1.10090
Cl178      Cl  0.37556007  0.07130841  0.88475633    -0.87010
C179        C  0.37659726  0.11416874  0.80722983     0.95320
C180        C  0.44950736  0.11872382  0.88589109     0.95120
N181        N  0.38861272  0.83174780  0.04966748    -0.07160
N182        N  0.38723920  0.80950952  0.04562855    -0.59280
N183        N  0.41383061  0.88180461  0.03689701    -0.06840
N184        N  0.42778501  0.89081653  0.02186492    -0.61410
N185        N  0.42515521  0.86947316  0.05191183    -0.06440
N186        N  0.44728338  0.86927808  0.04693641    -0.59260
N187        N  0.37794206  0.84344380  0.03367003    -0.06120
N188        N  0.36892792  0.82954553  0.01842309    -0.61760
C189        C  0.37459377  0.80841481  0.02617861     0.95010
C190        C  0.44854209  0.88277476  0.02801765     0.94790
N191        N  0.36328203  0.92886993  0.04990408    -0.07350
N192        N  0.36252685  0.95101095  0.04526041    -0.59860
N193        N  0.33992397  0.88008376  0.03205231    -0.05470
N194        N  0.32712992  0.87227699  0.01528721    -0.61110
N195        N  0.32732970  0.89091982  0.04716479    -0.07380
N196        N  0.30559149  0.89095015  0.04103847    -0.60130
N197        N  0.37605111  0.91800283  0.03495398    -0.05110
N198        N  0.38450725  0.93241400  0.01984553    -0.61200
Mn199      Mn  0.37701788  0.88080753  0.03398807     1.18440
C200        C  0.37616912  0.95295646  0.02665598     0.97100
C201        C  0.30578241  0.87916240  0.02112622     0.97760
N202        N  0.42222506  0.86797014  0.10467496    -0.07400
N203        N  0.44457152  0.86839483  0.10659387    -0.63710
N204        N  0.37410610  0.84024861  0.11892571    -0.06200
N205        N  0.36497331  0.82319934  0.13117829    -0.64380
N206        N  0.38697269  0.83118369  0.10261782    -0.06900
N207        N  0.38723292  0.80871963  0.10353047    -0.63970
N208        N  0.41189555  0.87938172  0.12134417    -0.05800
N209        N  0.42807615  0.88799102  0.13512400    -0.64660
Mn210      Mn  0.40599628  0.84981275  0.07736104     1.10660
C211        C  0.44835525  0.88068070  0.12546173     0.98320
C212        C  0.37360485  0.80363811  0.12121464     0.98390
N213        N  0.32398461  0.89092957  0.09950607    -0.06910
N214        N  0.30156712  0.89055880  0.09909745    -0.62290
N215        N  0.36926097  0.91951239  0.12004119    -0.06230
N216        N  0.37420629  0.93687095  0.13424926    -0.59010
N217        N  0.35883289  0.92817401  0.10193831    -0.07540
N218        N  0.35657569  0.95043584  0.10319926    -0.61850
N219        N  0.33239584  0.87988333  0.11738662    -0.06530
N220        N  0.31482465  0.87169888  0.12964618    -0.59040
Mn221      Mn  0.34331624  0.90971747  0.07474479     1.20190
Mn222      Mn  0.37194600  0.87976387  0.12139248     1.10090
Cl223      Cl  0.37460894  0.87995388  0.07750018    -0.87010
C224        C  0.29558477  0.87860721  0.11772928     0.95320
C225        C  0.36581869  0.95614817  0.12323889     0.95120
N226        N  0.53743602  0.89774496  0.84029322    -0.07160
N227        N  0.53193660  0.89560677  0.81839886    -0.59280
N228        N  0.53061374  0.92353445  0.89191883    -0.06840
N229        N  0.51732484  0.93836698  0.90230745    -0.61410
N230        N  0.54480756  0.93392142  0.87809110    -0.06440
N231        N  0.54089958  0.95630295  0.87818507    -0.59260
N232        N  0.52168042  0.88857420  0.85331191    -0.06120
N233        N  0.50521188  0.87986543  0.84075745    -0.61760
C234        C  0.51176489  0.88417026  0.81899718     0.95010
C235        C  0.52367656  0.95879923  0.89361046     0.94790
N236        N  0.54244526  0.87029860  0.93684621    -0.07350
N237        N  0.53821196  0.86905411  0.95910647    -0.59860
N238        N  0.51997244  0.85038915  0.88890886    -0.05470
N239        N  0.50161587  0.83955441  0.88189325    -0.61110
N240        N  0.53477896  0.83599406  0.89785429    -0.07380
N241        N  0.52670658  0.81490643  0.89744212    -0.60130
N242        N  0.52897789  0.88545359  0.92713497    -0.05110
N243        N  0.51575706  0.89532439  0.94239977    -0.61200
Mn244      Mn  0.52492676  0.88715998  0.89037873     1.18440
C245        C  0.52158778  0.88506468  0.96235549     0.97100
C246        C  0.50596509  0.81747017  0.88733255     0.97760
N247        N  0.59638547  0.92778224  0.87296470    -0.07400
N248        N  0.59883562  0.95004307  0.87400878    -0.63710
N249        N  0.60675671  0.87952441  0.84395127    -0.06200
N250        N  0.61763928  0.87044027  0.82582068    -0.64380
N251        N  0.59009204  0.89280066  0.83618758    -0.06900
N252        N  0.58932427  0.89314792  0.81375130    -0.63970
N253        N  0.61281009  0.91666755  0.88397846    -0.05800
N254        N  0.62702188  0.93222396  0.89299565    -0.64660
Mn255      Mn  0.56737213  0.91320858  0.85649188     1.10660
C256        C  0.61783195  0.95298136  0.88626867     0.98320
C257        C  0.60618826  0.87915472  0.80700003     0.98390
N258        N  0.58753053  0.82934955  0.89423367    -0.06910
N259        N  0.58674143  0.80689362  0.89340892    -0.62290
N260        N  0.61127178  0.87363702  0.92365442    -0.06230
N261        N  0.62523593  0.87945983  0.94101953    -0.59010
N262        N  0.59364002  0.86280768  0.93254241    -0.07540
N263        N  0.59500654  0.86110077  0.95480870    -0.61850
N264        N  0.60544796  0.83749298  0.88316384    -0.06530
N265        N  0.61732569  0.81978851  0.87456347    -0.59040
Mn266      Mn  0.56477862  0.84926668  0.91528749     1.20190
Mn267      Mn  0.61105663  0.87679818  0.88366346     1.10090
Cl268      Cl  0.56734693  0.88149240  0.88634670    -0.87010
C269        C  0.60517682  0.80074630  0.88115384     0.95320
C270        C  0.61455016  0.87114864  0.96050141     0.95120
N271        N  0.87108364  0.33888610  0.64976106    -0.07160
N272        N  0.87952376  0.32220293  0.63646608    -0.59280
N273        N  0.82378168  0.36646951  0.66742950    -0.06840
N274        N  0.80143172  0.36686991  0.66693129    -0.61410
N275        N  0.83284772  0.37780277  0.65012762    -0.06440
N276        N  0.81575550  0.38621394  0.63722592    -0.59260
N277        N  0.85951074  0.32945368  0.66673148    -0.06120
N278        N  0.85970174  0.30697897  0.66550002    -0.61760
C279        C  0.87202513  0.30243220  0.64669887     0.95010
C280        C  0.79620233  0.37913227  0.64830785     0.94790
N281        N  0.83599225  0.37929921  0.73447340    -0.07350
N282        N  0.82327937  0.38802297  0.75072735    -0.59860
N283        N  0.86057609  0.32954152  0.71932827    -0.05470
N284        N  0.86016905  0.30749495  0.72431203    -0.61110
N285        N  0.87204223  0.34090726  0.73483818    -0.07380
N286        N  0.87988134  0.32692385  0.75075526    -0.60130
N287        N  0.82369435  0.36718805  0.72025481    -0.05110
N288        N  0.80203519  0.36695111  0.72708295    -0.61200
Mn289      Mn  0.84166005  0.34794204  0.69321311     1.18440
C290        C  0.80219447  0.38018062  0.74628567     0.97100
C291        C  0.87279045  0.30611837  0.74367209     0.97760
N292        N  0.87402919  0.41759861  0.64986079    -0.07400
N293        N  0.86599275  0.43423764  0.63625501    -0.63710
N294        N  0.92165881  0.39009048  0.66680903    -0.06200
N295        N  0.94402991  0.39035493  0.66492630    -0.64380
N296        N  0.91193942  0.37879331  0.64981651    -0.06900
N297        N  0.92841086  0.37083550  0.63598537    -0.63970
N298        N  0.88600229  0.42701177  0.66655580    -0.05800
N299        N  0.88664123  0.44942490  0.66466495    -0.64660
Mn300      Mn  0.87243428  0.37828423  0.64813149     1.10660
C301        C  0.87440190  0.45394445  0.64577845     0.98320
C302        C  0.94834186  0.37840016  0.64583706     0.98390
N303        N  0.90915546  0.37695635  0.73447556    -0.06910
N304        N  0.92165846  0.36832470  0.75095888    -0.62290
N305        N  0.88481582  0.42697581  0.71967979    -0.06230
N306        N  0.88445052  0.44907810  0.72460976    -0.59010
N307        N  0.87321207  0.41539156  0.73497015    -0.07540
N308        N  0.86453634  0.42921165  0.75055949    -0.61850
N309        N  0.92158629  0.38907489  0.72031820    -0.06530
N310        N  0.94312705  0.38945936  0.72748408    -0.59040
Mn311      Mn  0.87261000  0.37815105  0.73494121     1.20190
Mn312      Mn  0.90384099  0.40854467  0.69317387     1.10090
Cl313      Cl  0.87265834  0.37825687  0.69204976    -0.87010
C314        C  0.94272542  0.37628730  0.74676360     0.95320
C315        C  0.87133292  0.45023045  0.74377585     0.95120
N316        N  0.91779197  0.21750451  0.89701490    -0.07160
N317        N  0.93928994  0.22443952  0.89761065    -0.59280
N318        N  0.86825190  0.22845573  0.92380529    -0.06840
N319        N  0.85914187  0.24320314  0.93824779    -0.61410
N320        N  0.88118101  0.21358287  0.93465029    -0.06440
N321        N  0.88125769  0.21796672  0.95688599    -0.59260
N322        N  0.90485604  0.23263011  0.88647041    -0.06120
N323        N  0.91716941  0.25005573  0.87941771    -0.61760
C324        C  0.93868459  0.24472583  0.88628295     0.95010
C325        C  0.86721299  0.23645691  0.95893435     0.94790
N326        N  0.82056689  0.21033532  0.87476193    -0.07350
N327        N  0.79813686  0.21316730  0.87536939    -0.59860
N328        N  0.86736768  0.23104567  0.84952932    -0.05470
N329        N  0.87469077  0.24757324  0.83607395    -0.61110
N330        N  0.85744750  0.21496710  0.83749882    -0.07380
N331        N  0.85765770  0.22010670  0.81548427    -0.60130
N332        N  0.83077281  0.22602194  0.88706875    -0.05110
N333        N  0.81561381  0.23976327  0.89653887    -0.61200
Mn334      Mn  0.86770146  0.22996928  0.88669266     1.18440
C335        C  0.79530832  0.23140917  0.88936825     0.97100
C336        C  0.86881600  0.24027852  0.81493669     0.97760
N337        N  0.88566194  0.16109769  0.93232617    -0.07400
N338        N  0.88643008  0.15957446  0.95466075    -0.63710
N339        N  0.91293940  0.14675364  0.88442291    -0.06200
N340        N  0.93025706  0.13391648  0.87660253    -0.64380
N341        N  0.92149997  0.16421155  0.89592688    -0.06900
N342        N  0.94397442  0.16358131  0.89635843    -0.63970
N343        N  0.87516623  0.14344337  0.92298924    -0.05800
N344        N  0.86860510  0.12933886  0.93990401    -0.64660
Mn345      Mn  0.90178941  0.18895720  0.91503641     1.10660
C346        C  0.87593197  0.13993366  0.95968687     0.98320
C347        C  0.94954217  0.14480903  0.88432000     0.98390
N348        N  0.86059924  0.16262004  0.83484968    -0.06910
N349        N  0.86096148  0.16271786  0.81237583    -0.62290
N350        N  0.83414341  0.14165014  0.88188016    -0.06230
N351        N  0.81805542  0.12704550  0.88907964    -0.59010
N352        N  0.82395171  0.15833280  0.87042715    -0.07540
N353        N  0.80172400  0.15555327  0.86923536    -0.61850
N354        N  0.87267097  0.14549591  0.84353106    -0.06530
N355        N  0.88147995  0.13332816  0.82612804    -0.59040
Mn356      Mn  0.84055970  0.18652053  0.85421047     1.20190
Mn357      Mn  0.87376969  0.14247019  0.88326133     1.10090
Cl358      Cl  0.87107483  0.18639874  0.88479852    -0.87010
C359        C  0.87391562  0.14459173  0.80675628     0.95320
C360        C  0.79792616  0.13603679  0.88055385     0.95120
N361        N  0.70798041  0.36174243  0.83815065    -0.07160
N362        N  0.71355003  0.36321305  0.81621737    -0.59280
N363        N  0.71850605  0.33479109  0.88828670    -0.06840
N364        N  0.73272856  0.31996029  0.89759538    -0.61410
N365        N  0.70375632  0.32438978  0.87509728    -0.06440
N366        N  0.70782777  0.30210543  0.87474803    -0.59260
N367        N  0.72325572  0.37186104  0.85093753    -0.06120
N368        N  0.73938907  0.38077780  0.83821477    -0.61760
C369        C  0.73323271  0.37537844  0.81656707     0.95010
C370        C  0.72585441  0.29963119  0.88911636     0.94790
N371        N  0.70619516  0.38587040  0.93580941    -0.07350
N372        N  0.71343213  0.38840241  0.95718183    -0.59860
N373        N  0.72457793  0.40874335  0.88764701    -0.05470
N374        N  0.74154855  0.42081930  0.87928804    -0.61110
N375        N  0.70965786  0.42207226  0.89790284    -0.07380
N376        N  0.71633719  0.44368898  0.89698872    -0.60130
N377        N  0.71976512  0.37174406  0.92475505    -0.05110
N378        N  0.73591647  0.36380842  0.93823135    -0.61200
Mn379      Mn  0.72173830  0.37164140  0.88795866     1.18440
C380        C  0.73199794  0.37431394  0.95834675     0.97100
C381        C  0.73626869  0.44265258  0.88505149     0.97760
N382        N  0.65214495  0.32778959  0.87140933    -0.07400
N383        N  0.65091870  0.30542055  0.87186903    -0.63710
N384        N  0.63857178  0.37632436  0.84410518    -0.06200
N385        N  0.62650925  0.38510512  0.82659646    -0.64380
N386        N  0.65565292  0.36418508  0.83555939    -0.06900
N387        N  0.65567709  0.36431385  0.81312251    -0.63970
N388        N  0.63526025  0.33766253  0.88279148    -0.05800
N389        N  0.62188090  0.32113889  0.89137421    -0.64660
Mn390      Mn  0.67975912  0.34445136  0.85477129     1.10660
C391        C  0.63219621  0.30111756  0.88414493     0.98320
C392        C  0.63764420  0.37729223  0.80726139     0.98390
N393        N  0.65630168  0.42559707  0.89650798    -0.06910
N394        N  0.65599677  0.44811770  0.89583035    -0.62290
N395        N  0.63608508  0.37873445  0.92336755    -0.06230
N396        N  0.62222877  0.37067781  0.93972795    -0.59010
N397        N  0.65314730  0.38971613  0.93332219    -0.07540
N398        N  0.65139121  0.38949277  0.95573563    -0.61850
N399        N  0.63926188  0.41671533  0.88459091    -0.06530
N400        N  0.62703535  0.43381496  0.87534345    -0.59040
Mn401      Mn  0.68112933  0.40620932  0.91611917     1.20190
Mn402      Mn  0.63532933  0.37741343  0.88373595     1.10090
Cl403      Cl  0.67883975  0.37511100  0.88567715    -0.87010
C404        C  0.63782826  0.45324361  0.88275553     0.95320
C405        C  0.63220335  0.37782221  0.95977826     0.95120
N406        N  0.03759539  0.39367520  0.83788349    -0.07160
N407        N  0.03140496  0.39199882  0.81618730    -0.59280
N408        N  0.02976222  0.42184297  0.88779630    -0.06840
N409        N  0.01633519  0.43716165  0.89739531    -0.61410
N410        N  0.04412839  0.43164579  0.87369239    -0.06440
N411        N  0.04058392  0.45404480  0.87312398    -0.59260
N412        N  0.02225366  0.38451089  0.85135976    -0.06120
N413        N  0.00538041  0.37603735  0.83925643    -0.61760
C414        C  0.01127585  0.38072741  0.81732385     0.95010
C415        C  0.02335704  0.45723688  0.88834678     0.94790
N416        N  0.04375915  0.37102369  0.93555719    -0.07350
N417        N  0.03911570  0.36958080  0.95769850    -0.59860
N418        N  0.02166299  0.34836975  0.88881735    -0.05470
N419        N  0.00341025  0.33716003  0.88231613    -0.61110
N420        N  0.03656724  0.33454280  0.89848414    -0.07380
N421        N  0.02841709  0.31339109  0.89915009    -0.60130
N422        N  0.02938520  0.38510573  0.92542996    -0.05110
N423        N  0.01496271  0.39387346  0.94036473    -0.61200
Mn424      Mn  0.02541996  0.38515302  0.88844055     1.18440
C425        C  0.02121461  0.38419109  0.96045401     0.97100
C426        C  0.00759826  0.31541360  0.88886175     0.97760
N427        N  0.09526288  0.42697514  0.86762978    -0.07400
N428        N  0.09707942  0.44919167  0.86606479    -0.63710
N429        N  0.10734069  0.37812397  0.84133224    -0.06200
N430        N  0.11925860  0.36905792  0.82394268    -0.64380
N431        N  0.08992936  0.38986616  0.83278711    -0.06900
N432        N  0.08946588  0.38911477  0.81027837    -0.63970
N433        N  0.11254894  0.41751543  0.87872221    -0.05800
N434        N  0.12683062  0.43438997  0.88494224    -0.64660
Mn435      Mn  0.06684566  0.41053443  0.85271004     1.10660
C436        C  0.11659732  0.45419337  0.87665909     0.98320
C437        C  0.10763527  0.37618422  0.80471456     0.98390
N438        N  0.09018384  0.32974845  0.89434033    -0.06910
N439        N  0.09036579  0.30722282  0.89421784    -0.62290
N440        N  0.11266244  0.37617349  0.92051894    -0.06230
N441        N  0.12757878  0.38290443  0.93657344    -0.59010
N442        N  0.09585357  0.36516566  0.93083547    -0.07540
N443        N  0.09882040  0.36402146  0.95307162    -0.61850
N444        N  0.10719730  0.33830246  0.88212266    -0.06530
N445        N  0.11923031  0.32095642  0.87314774    -0.59040
Mn446      Mn  0.06679263  0.34973046  0.91485253     1.20190
Mn447      Mn  0.11177758  0.37756847  0.88076411     1.10090
Cl448      Cl  0.06801557  0.38065553  0.88419558    -0.87010
C449        C  0.10835745  0.30175016  0.88105747     0.95320
C450        C  0.11859941  0.37470906  0.95680142     0.95120
N451        N  0.88851365  0.33169484  0.04692976    -0.07160
N452        N  0.88586814  0.30964311  0.04263450    -0.59280
N453        N  0.91587901  0.38084438  0.03516840    -0.06840
N454        N  0.93069665  0.38981146  0.02083954    -0.61410
N455        N  0.92639512  0.36820350  0.05057957    -0.06440
N456        N  0.94874230  0.36815537  0.04693824    -0.59260
N457        N  0.87848386  0.34416828  0.03107561    -0.06120
N458        N  0.86869636  0.33096251  0.01569575    -0.61760
C459        C  0.87321088  0.30946084  0.02316932     0.95010
C460        C  0.95115633  0.38205063  0.02849987     0.94790
N461        N  0.86653841  0.42940284  0.05016778    -0.07350
N462        N  0.86789950  0.45185333  0.04775314    -0.59860
N463        N  0.84151720  0.38203626  0.03074397    -0.05470
N464        N  0.82808070  0.37406628  0.01454881    -0.61110
N465        N  0.82938740  0.39236738  0.04659767    -0.07380
N466        N  0.80737196  0.39182951  0.04160064    -0.60130
N467        N  0.87888230  0.41892789  0.03457178    -0.05110
N468        N  0.88899033  0.43399104  0.02114530    -0.61200
Mn469      Mn  0.87880876  0.38153704  0.03219960     1.18440
C470        C  0.88227504  0.45450551  0.02975879     0.97100
C471        C  0.80681706  0.38010765  0.02166822     0.97760
N472        N  0.92384553  0.36439294  0.10301701    -0.07400
N473        N  0.94621785  0.36415463  0.10480064    -0.63710
N474        N  0.87497985  0.33811569  0.11675804    -0.06200
N475        N  0.86585658  0.32109869  0.12911291    -0.64380
N476        N  0.88714946  0.32895400  0.09998598    -0.06900
N477        N  0.88695109  0.30643222  0.10068262    -0.63970
N478        N  0.91400522  0.37626357  0.11960479    -0.05800
N479        N  0.93047176  0.38479644  0.13302775    -0.64660
Mn480      Mn  0.90665346  0.34801035  0.07522282     1.10660
C481        C  0.95044150  0.37664071  0.12345739     0.98320
C482        C  0.87368899  0.30139630  0.11871470     0.98390
N483        N  0.82648906  0.39103934  0.09900351    -0.06910
N484        N  0.80406495  0.39140846  0.09903214    -0.62290
N485        N  0.87346925  0.41772193  0.11941982    -0.06230
N486        N  0.88107338  0.43473538  0.13288082    -0.59010
N487        N  0.86246895  0.42706638  0.10201773    -0.07540
N488        N  0.86222545  0.44941408  0.10302675    -0.61850
N489        N  0.83485674  0.37931597  0.11645755    -0.06530
N490        N  0.81728127  0.37136678  0.12883647    -0.59040
Mn491      Mn  0.84606253  0.40996682  0.07457500     1.20190
Mn492      Mn  0.87434713  0.37783086  0.11989247     1.10090
Cl493      Cl  0.87646912  0.37929118  0.07574715    -0.87010
C494        C  0.79805839  0.37920411  0.11749921     0.95320
C495        C  0.87377755  0.45454860  0.12202829     0.95120
N496        N  0.82827000  0.53695264  0.89661486    -0.07160
N497        N  0.80678138  0.53004697  0.89526867    -0.59280
N498        N  0.87700668  0.52755181  0.92592154    -0.06840
N499        N  0.88694281  0.51454910  0.94156569    -0.61410
N500        N  0.86339718  0.54262148  0.93560663    -0.06440
N501        N  0.86370153  0.54027692  0.95811751    -0.59260
N502        N  0.84197701  0.52182315  0.88717100    -0.06120
N503        N  0.83029296  0.50450292  0.87899897    -0.61760
C504        C  0.80832925  0.50973257  0.88399738     0.95010
C505        C  0.87855792  0.52273055  0.96162076     0.94790
N506        N  0.92596432  0.54465828  0.87733898    -0.07350
N507        N  0.94829039  0.54103242  0.87709739    -0.59860
N508        N  0.88030044  0.52319843  0.85115737    -0.05470
N509        N  0.87248749  0.50724155  0.83722683    -0.61110
N510        N  0.89016496  0.53953956  0.83939966    -0.07380
N511        N  0.88957682  0.53515981  0.81727110    -0.60130
N512        N  0.91570841  0.52928786  0.89003882    -0.05110
N513        N  0.93075207  0.51509366  0.89907328    -0.61200
Mn514      Mn  0.87888409  0.52495074  0.88866853     1.18440
C515        C  0.95100375  0.52259095  0.89090780     0.97100
C516        C  0.87848537  0.51498765  0.81615107     0.97760
N517        N  0.85807904  0.59456275  0.93243564    -0.07400
N518        N  0.85766119  0.59549555  0.95482853    -0.63710
N519        N  0.83243039  0.60801754  0.88346824    -0.06200
N520        N  0.81508146  0.62013003  0.87445233    -0.64380
N521        N  0.82385319  0.59020861  0.89444115    -0.06900
N522        N  0.80145108  0.58974186  0.89322253    -0.63970
N523        N  0.86950103  0.61182514  0.92340548    -0.05800
N524        N  0.87715820  0.62498557  0.94061078    -0.64660
Mn525      Mn  0.84300672  0.56622021  0.91479251     1.10660
C526        C  0.86947586  0.61424849  0.96023537     0.98320
C527        C  0.79587516  0.60809612  0.88060344     0.98390
N528        N  0.88634996  0.59201070  0.83601990    -0.06910
N529        N  0.88655697  0.59188451  0.81353520    -0.62290
N530        N  0.91158037  0.61386715  0.88280430    -0.06230
N531        N  0.92760996  0.62938009  0.88811215    -0.59010
N532        N  0.92186321  0.59646054  0.87264027    -0.07540
N533        N  0.94395454  0.59939947  0.87083814    -0.61850
N534        N  0.87383643  0.60903114  0.84420886    -0.06530
N535        N  0.86519082  0.62090879  0.82653204    -0.59040
Mn536      Mn  0.90607918  0.56822431  0.85626274     1.20190
Mn537      Mn  0.87178805  0.61263038  0.88361643     1.10090
Cl538      Cl  0.87483886  0.56857682  0.88584721    -0.87010
C539        C  0.87340472  0.60977729  0.80740471     0.95320
C540        C  0.94783102  0.61978121  0.88032428     0.95120
N541        N  0.83648766  0.87648627  0.23674500    -0.07160
N542        N  0.82348595  0.88483697  0.25305245    -0.59280
N543        N  0.85990092  0.82730934  0.21915189    -0.06840
N544        N  0.86004560  0.80490743  0.22220656    -0.61410
N545        N  0.87201031  0.83748753  0.23504290    -0.06440
N546        N  0.88079875  0.82226745  0.24928206    -0.59260
N547        N  0.82412648  0.86597320  0.22129692    -0.06120
N548        N  0.80224796  0.86653389  0.22702961    -0.61760
C549        C  0.80218258  0.87869212  0.24677730     0.95010
C550        C  0.87351506  0.80200094  0.24084496     0.94790
N551        N  0.86947995  0.83859418  0.14986788    -0.07350
N552        N  0.87641737  0.82205597  0.13557218    -0.59860
N553        N  0.82282767  0.86650940  0.16850573    -0.05470
N554        N  0.80042624  0.86644321  0.16698338    -0.61110
N555        N  0.83238807  0.87804636  0.15159067    -0.07380
N556        N  0.81580298  0.88636101  0.13807550    -0.60130
N557        N  0.85770864  0.82907968  0.16662771    -0.05110
N558        N  0.85617486  0.80680829  0.16420146    -0.61200
Mn559      Mn  0.84093274  0.84709132  0.19384270     1.18440
C560        C  0.86752477  0.80232492  0.14481479     0.97100
C561        C  0.79601445  0.87867422  0.14809779     0.97760
N562        N  0.91042359  0.87364007  0.23658263    -0.07400
N563        N  0.92396469  0.86522590  0.25253780    -0.63710
N564        N  0.88578649  0.92355429  0.22297756    -0.06200
N565        N  0.88574991  0.94558159  0.22799503    -0.64380
N566        N  0.87451894  0.91193834  0.23848742    -0.06900
N567        N  0.86642188  0.92571825  0.25445326    -0.63970
N568        N  0.92217644  0.88534459  0.22147218    -0.05800
N569        N  0.94414892  0.88521329  0.22699835    -0.64660
Mn570      Mn  0.87334976  0.87475025  0.23721188     1.10660
C571        C  0.94504606  0.87224504  0.24635542     0.98320
C572        C  0.87352087  0.94668293  0.24765341     0.98390
N573        N  0.87391127  0.91719418  0.15287662    -0.06910
N574        N  0.86595933  0.93462067  0.14020548    -0.62290
N575        N  0.92114817  0.88864881  0.16818242    -0.06230
N576        N  0.94344238  0.88945635  0.16580564    -0.59010
N577        N  0.91121261  0.87812915  0.15083310    -0.07540
N578        N  0.92744808  0.87122916  0.13620287    -0.61850
N579        N  0.88551032  0.92560714  0.17034034    -0.06530
N580        N  0.88556517  0.94807927  0.17019664    -0.59040
Mn581      Mn  0.87181862  0.87802493  0.14962188     1.20190
Mn582      Mn  0.90388322  0.90589958  0.19556216     1.10090
Cl583      Cl  0.87257795  0.87639794  0.19377122    -0.87010
C584        C  0.87348146  0.95375036  0.15153466     0.95320
C585        C  0.94743242  0.87867743  0.14600205     0.95120
N586        N  0.91848273  0.71867403  0.39339191    -0.07160
N587        N  0.93968721  0.72652771  0.39416351    -0.59280
N588        N  0.86970668  0.73119575  0.41992442    -0.06840
N589        N  0.86039547  0.74663156  0.43347841    -0.61410
N590        N  0.88237206  0.71677857  0.43168258    -0.06440
N591        N  0.88206603  0.72225083  0.45368560    -0.59260
N592        N  0.90536128  0.73275090  0.38165856    -0.06120
N593        N  0.91722026  0.75021745  0.37400769    -0.61760
C594        C  0.93860486  0.74628105  0.38185481     0.95010
C595        C  0.86794501  0.74084223  0.45457255     0.94790
N596        N  0.82057841  0.71055570  0.37383685    -0.07350
N597        N  0.79823519  0.71347344  0.37593043    -0.59860
N598        N  0.86689272  0.72890229  0.34551468    -0.05470
N599        N  0.87496317  0.74373621  0.33055833    -0.61110
N600        N  0.85601584  0.71237562  0.33500653    -0.07380
N601        N  0.85622602  0.71552926  0.31263365    -0.60130
N602        N  0.83161552  0.72665203  0.38478666    -0.05110
N603        N  0.81723536  0.74063010  0.39498166    -0.61200
Mn604      Mn  0.86834077  0.73035921  0.38278834     1.18440
C605        C  0.79648303  0.73221026  0.38946399     0.97100
C606        C  0.86820811  0.73508165  0.31017398     0.97760
N607        N  0.88676842  0.66377421  0.43249435    -0.07400
N608        N  0.88670102  0.66346845  0.45496847    -0.63710
N609        N  0.91314145  0.64731002  0.38434015    -0.06200
N610        N  0.93035871  0.63466385  0.37587159    -0.64380
N611        N  0.92187954  0.66532175  0.39480550    -0.06900
N612        N  0.94431217  0.66546513  0.39367821    -0.63970
N613        N  0.87581355  0.64604272  0.42382324    -0.05800
N614        N  0.86795702  0.63320133  0.44110838    -0.64660
Mn615      Mn  0.90268865  0.69088456  0.41329674     1.10660
C616        C  0.87489471  0.64465290  0.46042478     0.98320
C617        C  0.94967636  0.64658652  0.38178738     0.98390
N618        N  0.85840978  0.65994985  0.33551953    -0.06910
N619        N  0.85801836  0.65854350  0.31307678    -0.62290
N620        N  0.83394140  0.64236412  0.38453512    -0.06230
N621        N  0.81797192  0.62844965  0.39330206    -0.59010
N622        N  0.82340857  0.65850139  0.37262830    -0.07540
N623        N  0.80112451  0.65605295  0.37259100    -0.61850
N624        N  0.87177432  0.64419111  0.34486284    -0.06530
N625        N  0.88121867  0.63177655  0.32802532    -0.59040
Mn626      Mn  0.83944160  0.68527705  0.35406945     1.20190
Mn627      Mn  0.87380284  0.64319122  0.38449909     1.10090
Cl628      Cl  0.87119653  0.68714546  0.38365828    -0.87010
C629        C  0.87210419  0.64104969  0.30832943     0.95320
C630        C  0.79758533  0.63741999  0.38532264     0.95120
N631        N  0.71132613  0.86262953  0.34080629    -0.07160
N632        N  0.71759161  0.86314536  0.31909890    -0.59280
N633        N  0.72018902  0.83562732  0.39154067    -0.06840
N634        N  0.73359392  0.82058565  0.40167908    -0.61410
N635        N  0.70608573  0.82546754  0.37744512    -0.06440
N636        N  0.70996818  0.80317954  0.37725934    -0.59260
N637        N  0.72686167  0.87205623  0.35388481    -0.06120
N638        N  0.74398122  0.87960761  0.34146315    -0.61760
C639        C  0.73795898  0.87392573  0.31989440     0.95010
C640        C  0.72702767  0.80037453  0.39268832     0.94790
N641        N  0.70632161  0.88697614  0.43782840    -0.07350
N642        N  0.71104404  0.88928180  0.45984238    -0.59860
N643        N  0.72715323  0.90899399  0.39020922    -0.05470
N644        N  0.74450883  0.92066236  0.38221867    -0.61110
N645        N  0.71185697  0.92262157  0.39945702    -0.07380
N646        N  0.71876478  0.94417137  0.39818611    -0.60130
N647        N  0.72135592  0.87341286  0.42800532    -0.05110
N648        N  0.73654894  0.86604021  0.44300854    -0.61200
Mn649      Mn  0.72428694  0.87227424  0.39100065     1.18440
C650        C  0.72969429  0.87570919  0.46287141     0.97100
C651        C  0.73921976  0.94259342  0.38709473     0.97760
N652        N  0.65486228  0.82842394  0.37154739    -0.07400
N653        N  0.65393585  0.80614145  0.37073416    -0.63710
N654        N  0.64121748  0.87646374  0.34469661    -0.06200
N655        N  0.62846633  0.88465285  0.32746614    -0.64380
N656        N  0.65857913  0.86480979  0.33598043    -0.06900
N657        N  0.65798267  0.86444917  0.31345532    -0.63970
N658        N  0.63764866  0.83744642  0.38302176    -0.05800
N659        N  0.62445342  0.82009140  0.39042716    -0.64660
Mn660      Mn  0.68265056  0.84539785  0.35611549     1.10660
C661        C  0.63541317  0.80048470  0.38257817     0.98320
C662        C  0.63927756  0.87674803  0.30811475     0.98390
N663        N  0.65835938  0.92584983  0.39638903    -0.06910
N664        N  0.65756220  0.94830687  0.39647494    -0.62290
N665        N  0.63738546  0.87941918  0.42349628    -0.06230
N666        N  0.62305365  0.87198180  0.43971121    -0.59010
N667        N  0.65388234  0.89116910  0.43346657    -0.07540
N668        N  0.65117898  0.89229729  0.45572048    -0.61850
N669        N  0.64116787  0.91693334  0.38477281    -0.06530
N670        N  0.62832445  0.93407921  0.37647406    -0.59040
Mn671      Mn  0.68239001  0.90700535  0.41685058     1.20190
Mn672      Mn  0.63753261  0.87752063  0.38409323     1.10090
Cl673      Cl  0.68140505  0.87563677  0.38701934    -0.87010
C674        C  0.63896836  0.95357469  0.38410076     0.95320
C675        C  0.63198831  0.88064504  0.45964269     0.95120
N676        N  0.03820695  0.89615905  0.33790974    -0.07160
N677        N  0.03306395  0.89435731  0.31594154    -0.59280
N678        N  0.02936978  0.92269173  0.38849950    -0.06840
N679        N  0.01546579  0.93737087  0.39833650    -0.61410
N680        N  0.04365369  0.93319730  0.37483753    -0.06440
N681        N  0.03918484  0.95544982  0.37441736    -0.59260
N682        N  0.02254724  0.88640461  0.35062186    -0.06120
N683        N  0.00638859  0.87759775  0.33768130    -0.61760
C684        C  0.01314343  0.88263510  0.31605533     0.95010
C685        C  0.02152988  0.95770663  0.38934618     0.94790
N686        N  0.04242877  0.87183842  0.43543932    -0.07350
N687        N  0.03747627  0.87102328  0.45756108    -0.59860
N688        N  0.02164176  0.84899404  0.38776989    -0.05470
N689        N  0.00417765  0.83713589  0.38016490    -0.61110
N690        N  0.03659554  0.83551460  0.39785068    -0.07380
N691        N  0.02947562  0.81402082  0.39753488    -0.60130
N692        N  0.02839767  0.88584332  0.42480459    -0.05110
N693        N  0.01411826  0.89542340  0.43929821    -0.61200
Mn694      Mn  0.02507574  0.88605984  0.38793024     1.18440
C695        C  0.01978520  0.88604017  0.45964584     0.97100
C696        C  0.00922560  0.81529473  0.38619416     0.97760
N697        N  0.09563232  0.92884467  0.37028883    -0.07400
N698        N  0.09753402  0.95119905  0.37092637    -0.63710
N699        N  0.10759722  0.88007221  0.34271747    -0.06200
N700        N  0.11924418  0.87105884  0.32507997    -0.64380
N701        N  0.09059376  0.89254954  0.33439842    -0.06900
N702        N  0.09008972  0.89226967  0.31194230    -0.63970
N703        N  0.11225861  0.91837205  0.38158482    -0.05800
N704        N  0.12597197  0.93441851  0.39047958    -0.64660
Mn705      Mn  0.06720276  0.91283509  0.35405244     1.10660
C706        C  0.11632043  0.95481955  0.38337109     0.98320
C707        C  0.10780875  0.87894658  0.30596753     0.98390
N708        N  0.08953146  0.83092711  0.39511614    -0.06910
N709        N  0.08930263  0.80846727  0.39517854    -0.62290
N710        N  0.11169370  0.87704888  0.42186007    -0.06230
N711        N  0.12590933  0.88478672  0.43805499    -0.59010
N712        N  0.09469773  0.86618718  0.43200580    -0.07540
N713        N  0.09685504  0.86606239  0.45438278    -0.61850
N714        N  0.10690000  0.83908954  0.38321811    -0.06530
N715        N  0.11893575  0.82133394  0.37492255    -0.59040
Mn716      Mn  0.06600613  0.85078728  0.41522837     1.20190
Mn717      Mn  0.11147336  0.87855570  0.38226929     1.10090
Cl718      Cl  0.06773244  0.88193606  0.38479312    -0.87010
C719        C  0.10750050  0.80224108  0.38264033     0.95320
C720        C  0.11625305  0.87742512  0.45822359     0.95120
N721        N  0.82873262  0.03952326  0.39959055    -0.07160
N722        N  0.80694219  0.03357457  0.39848497    -0.59280
N723        N  0.87846822  0.02985857  0.42727932    -0.06840
N724        N  0.88783182  0.01645148  0.44296339    -0.61410
N725        N  0.86556444  0.04553044  0.43695181    -0.06440
N726        N  0.86580349  0.04326776  0.45945607    -0.59260
N727        N  0.84170498  0.02376199  0.39018789    -0.06120
N728        N  0.82924701  0.00690863  0.38220840    -0.61760
C729        C  0.80752824  0.01316640  0.38736308     0.95010
C730        C  0.87986655  0.02511006  0.46300462     0.94790
N731        N  0.92509943  0.04521561  0.37556558    -0.07350
N732        N  0.94755525  0.04251052  0.37566740    -0.59860
N733        N  0.87796292  0.02348835  0.35267829    -0.05470
N734        N  0.86935741  0.00698265  0.33995796    -0.61110
N735        N  0.88702801  0.03936105  0.33969341    -0.07380
N736        N  0.88510672  0.03404088  0.31784964    -0.60130
N737        N  0.91540280  0.03048249  0.38939713    -0.05110
N738        N  0.93092457  0.01756615  0.39944013    -0.61200
Mn739      Mn  0.87861848  0.02634417  0.39001646     1.18440
C740        C  0.95096608  0.02534617  0.39090863     0.97100
C741        C  0.87373564  0.01395062  0.31826692     0.97760
N742        N  0.86089216  0.09747056  0.43236082    -0.07400
N743        N  0.85927152  0.10035963  0.45452512    -0.63710
N744        N  0.83339345  0.11024570  0.38462889    -0.06200
N745        N  0.81558518  0.12299310  0.37752678    -0.64380
N746        N  0.82532085  0.09259945  0.39621359    -0.06900
N747        N  0.80295479  0.09293072  0.39723426    -0.63970
N748        N  0.87158788  0.11463254  0.42228578    -0.05800
N749        N  0.87745482  0.12981061  0.43842085    -0.64660
Mn750      Mn  0.84489017  0.06885294  0.41625241     1.10660
C751        C  0.86944472  0.12037801  0.45850992     0.98320
C752        C  0.79660961  0.11174633  0.38580396     0.98390
N753        N  0.88424375  0.09211288  0.33479112    -0.06910
N754        N  0.88365768  0.09209207  0.31227301    -0.62290
N755        N  0.91285503  0.11412074  0.38031855    -0.06230
N756        N  0.93020995  0.12819255  0.38576111    -0.59010
N757        N  0.92168584  0.09634611  0.36951201    -0.07540
N758        N  0.94387256  0.09764165  0.36755678    -0.61850
N759        N  0.87321320  0.10992570  0.34346563    -0.06530
N760        N  0.86486181  0.12256780  0.32622495    -0.59040
Mn761      Mn  0.90443757  0.06826681  0.35460678     1.20190
Mn762      Mn  0.87286452  0.11416677  0.38273847     1.10090
Cl763      Cl  0.87513867  0.07001815  0.38590353    -0.87010
C764        C  0.87161013  0.11096091  0.30691328     0.95320
C765        C  0.94962005  0.11729871  0.37736471     0.95120
N766        N  0.88839951  0.83399762  0.54627251    -0.07160
N767        N  0.88701717  0.81192280  0.54160549    -0.59280
N768        N  0.91431454  0.88372904  0.53458457    -0.06840
N769        N  0.92869927  0.89349146  0.52035426    -0.61410
N770        N  0.92540589  0.87125716  0.54969777    -0.06440
N771        N  0.94768894  0.87197562  0.54588375    -0.59260
N772        N  0.87751337  0.84618575  0.53076361    -0.06120
N773        N  0.86839665  0.83266797  0.51517801    -0.61760
C774        C  0.87441869  0.81128652  0.52217297     0.95010
C775        C  0.94948339  0.88619962  0.52764789     0.94790
N776        N  0.86539150  0.93140702  0.55141601    -0.07350
N777        N  0.86699320  0.95388446  0.54931530    -0.59860
N778        N  0.83972755  0.88393958  0.53184978    -0.05470
N779        N  0.82559736  0.87585357  0.51621051    -0.61110
N780        N  0.82825899  0.89435113  0.54817571    -0.07380
N781        N  0.80608097  0.89375714  0.54412012    -0.60130
N782        N  0.87709656  0.92103704  0.53525864    -0.05110
N783        N  0.88712644  0.93616105  0.52186084    -0.61200
Mn784      Mn  0.87716404  0.88369872  0.53236885     1.18440
C785        C  0.88096865  0.95659256  0.53100201     0.97100
C786        C  0.80471860  0.88181880  0.52440197     0.97760
N787        N  0.92442842  0.86654227  0.60202500    -0.07400
N788        N  0.94682938  0.86631202  0.60358246    -0.63710
N789        N  0.87693001  0.83871782  0.61668333    -0.06200
N790        N  0.87046853  0.82101156  0.62979592    -0.64380
N791        N  0.88836270  0.83047666  0.59898203    -0.06900
N792        N  0.88987893  0.80804777  0.59957180    -0.63970
N793        N  0.91474174  0.87731553  0.61941748    -0.05800
N794        N  0.93128468  0.88492760  0.63329587    -0.64660
Mn795      Mn  0.90674236  0.85039966  0.57429045     1.10660
C796        C  0.95118281  0.87756089  0.62300869     0.98320
C797        C  0.87894718  0.80188616  0.61871321     0.98390
N798        N  0.82675871  0.89200995  0.60061509    -0.06910
N799        N  0.80434846  0.89249718  0.60110678    -0.62290
N800        N  0.87403923  0.91814785  0.62047957    -0.06230
N801        N  0.88263649  0.93446366  0.63408644    -0.59010
N802        N  0.86254136  0.92825289  0.60378082    -0.07540
N803        N  0.86267842  0.95063366  0.60557725    -0.61850
N804        N  0.83544369  0.87974850  0.61756753    -0.06530
N805        N  0.81802471  0.87161830  0.63009826    -0.59040
Mn806      Mn  0.84560545  0.91158748  0.57612643     1.20190
Mn807      Mn  0.87517624  0.87839470  0.62030995     1.10090
Cl808      Cl  0.87611266  0.88093710  0.57604898    -0.87010
C809        C  0.79860190  0.87987243  0.61934707     0.95320
C810        C  0.87504521  0.95462936  0.62435457     0.95120
N811        N  0.12771120  0.09105370  0.48303355    -0.07160
N812        N  0.11873332  0.07652817  0.49778462    -0.59280
N813        N  0.17469051  0.11852853  0.46585680    -0.06840
N814        N  0.19688410  0.11903652  0.47023393    -0.61410
N815        N  0.16322999  0.12987226  0.48151958    -0.06440
N816        N  0.17720141  0.13851479  0.49681968    -0.59260
N817        N  0.13881779  0.07999535  0.46690630    -0.06120
N818        N  0.13786137  0.05763306  0.47037210    -0.61760
C819        C  0.12490928  0.05572834  0.48952764     0.95010
C820        C  0.19815380  0.13187494  0.48948887     0.94790
N821        N  0.16332895  0.12887596  0.39646212    -0.07350
N822        N  0.17971416  0.13770640  0.38305995    -0.59860
N823        N  0.13834492  0.08022347  0.41399148    -0.05470
N824        N  0.13905772  0.05776313  0.41287446    -0.61110
N825        N  0.12604471  0.08931073  0.39721901    -0.07380
N826        N  0.11799974  0.07224187  0.38423169    -0.60130
N827        N  0.17332139  0.11768413  0.41345744    -0.05110
N828        N  0.19570275  0.11865015  0.41228284    -0.61200
Mn829      Mn  0.15645041  0.09889122  0.43994202     1.18440
C830        C  0.19982260  0.13100205  0.39346610     0.97100
C831        C  0.12655134  0.05270387  0.39441364     0.97760
N832        N  0.12430071  0.16597825  0.48306159    -0.07400
N833        N  0.13283592  0.18098633  0.49760924    -0.63710
N834        N  0.07631608  0.13778279  0.46944047    -0.06200
N835        N  0.05455541  0.13694741  0.47573945    -0.64380
N836        N  0.08922559  0.12703634  0.48439613    -0.06900
N837        N  0.07672170  0.11836344  0.50088624    -0.63970
N838        N  0.11155561  0.17639137  0.46772835    -0.05800
N839        N  0.11097164  0.19864907  0.47136743    -0.64660
Mn840      Mn  0.12623896  0.12851862  0.48347781     1.10660
C841        C  0.12439113  0.20130511  0.48996215     0.98320
C842        C  0.05512343  0.12456889  0.49547741     0.98390
N843        N  0.08374209  0.12969014  0.39793507    -0.06910
N844        N  0.06672327  0.12485279  0.38331864    -0.62290
N845        N  0.10931672  0.17679487  0.41550646    -0.06230
N846        N  0.10899852  0.19923240  0.41542602    -0.59010
N847        N  0.12128010  0.16846554  0.39820141    -0.07540
N848        N  0.12943339  0.18607231  0.38593848    -0.61850
N849        N  0.07460974  0.13935298  0.41625760    -0.06530
N850        N  0.05231733  0.14122810  0.41467541    -0.59040
Mn851      Mn  0.12357582  0.12903825  0.39555996     1.20190
Mn852      Mn  0.09273859  0.15746709  0.44212461     1.10090
Cl853      Cl  0.12465752  0.12837174  0.43969014    -0.87010
C854        C  0.04716234  0.13249325  0.39422607     0.95320
C855        C  0.12164750  0.20525489  0.39734174     0.95120
N856        N  0.61943370  0.09171341  0.28224704    -0.07160
N857        N  0.62836247  0.07735296  0.26721183    -0.59280
N858        N  0.57139770  0.11794666  0.30006423    -0.06840
N859        N  0.54923452  0.11752979  0.29548889    -0.61410
N860        N  0.58241412  0.12939906  0.28420369    -0.06440
N861        N  0.56813558  0.13726501  0.26864444    -0.59260
N862        N  0.60852676  0.08048367  0.29831133    -0.06120
N863        N  0.60960626  0.05821800  0.29464531    -0.61760
C864        C  0.62234635  0.05651384  0.27538861     0.95010
C865        C  0.54747976  0.13003876  0.27599600     0.94790
N866        N  0.58363984  0.12662097  0.36992103    -0.07350
N867        N  0.56745264  0.13362681  0.38459060    -0.59860
N868        N  0.60993212  0.07969501  0.35055438    -0.05470
N869        N  0.61001602  0.05728415  0.35088728    -0.61110
N870        N  0.62223955  0.08836832  0.36734752    -0.07380
N871        N  0.63102784  0.07098833  0.37961386    -0.60130
N872        N  0.57361370  0.11559510  0.35297001    -0.05110
N873        N  0.55138096  0.11444992  0.35567504    -0.61200
Mn874      Mn  0.59065979  0.09839734  0.32560972     1.18440
C875        C  0.54746966  0.12539570  0.37538062     0.97100
C876        C  0.62309523  0.05159668  0.36883625     0.97760
N877        N  0.61964564  0.16637951  0.28312442    -0.07400
N878        N  0.61147868  0.18056576  0.26756243    -0.63710
N879        N  0.66879759  0.14000863  0.29663414    -0.06200
N880        N  0.69087965  0.13820847  0.29191783    -0.64380
N881        N  0.65664397  0.12887110  0.28147287    -0.06900
N882        N  0.67002246  0.11911751  0.26621256    -0.63970
N883        N  0.63153078  0.17755615  0.29849704    -0.05800
N884        N  0.63182454  0.19967776  0.29370033    -0.64660
Mn885      Mn  0.61951479  0.12912075  0.28217266     1.10660
C886        C  0.61882458  0.20132281  0.27458847     0.98320
C887        C  0.69139471  0.12492406  0.27288983     0.98390
N888        N  0.66259849  0.12930179  0.36675660    -0.06910
N889        N  0.68015536  0.12238267  0.37988148    -0.62290
N890        N  0.63458018  0.17697042  0.35114476    -0.06230
N891        N  0.63437430  0.19941016  0.35245626    -0.59010
N892        N  0.62388042  0.16738677  0.36860822    -0.07540
N893        N  0.61600252  0.18400187  0.38234568    -0.61850
N894        N  0.67094554  0.14065474  0.34912222    -0.06530
N895        N  0.69330947  0.14166433  0.34970535    -0.59040
Mn896      Mn  0.62317456  0.12787309  0.36993408     1.20190
Mn897      Mn  0.65162322  0.15897464  0.32396513     1.10090
Cl898      Cl  0.62122373  0.12862282  0.32569807    -0.87010
C899        C  0.69929516  0.13054449  0.36881019     0.95320
C900        C  0.62295665  0.20384398  0.37181028     0.95120
N901        N  0.11985470  0.86157124  0.09227281    -0.07160
N902        N  0.12627794  0.87526278  0.07500319    -0.59280
N903        N  0.07268945  0.84548485  0.11935652    -0.06840
N904        N  0.05033891  0.84609564  0.11934543    -0.61410
N905        N  0.08157097  0.86274142  0.13078599    -0.06440
N906        N  0.06434829  0.87568671  0.13892984    -0.59260
N907        N  0.10904439  0.84386778  0.08349448    -0.06120
N908        N  0.10787268  0.84495454  0.06110511    -0.61760
C909        C  0.11854925  0.86439822  0.05554485     0.95010
C910        C  0.04489081  0.86470300  0.13149224     0.94790
N911        N  0.08229209  0.77779338  0.13430590    -0.07350
N912        N  0.06750762  0.76313596  0.14294056    -0.59860
N913        N  0.10917584  0.79117236  0.08537732    -0.05470
N914        N  0.10908192  0.78572776  0.06344150    -0.61110
N915        N  0.11975939  0.77538035  0.09744561    -0.07380
N916        N  0.12734891  0.75885030  0.08409161    -0.60130
N917        N  0.07169893  0.79349394  0.12213497    -0.05110
N918        N  0.04943804  0.78997542  0.12209892    -0.61200
Mn919      Mn  0.09070296  0.81865153  0.10243560     1.18440
C920        C  0.04708055  0.77113435  0.13534876     0.97100
C921        C  0.12088976  0.76575571  0.06294936     0.97760
N922        N  0.12217619  0.86301740  0.17148385    -0.07400
N923        N  0.11387512  0.87669217  0.18794666    -0.63710
N924        N  0.16994006  0.84447346  0.14482570    -0.06200
N925        N  0.19237024  0.84557891  0.14514372    -0.64380
N926        N  0.16069861  0.86145820  0.13294241    -0.06900
N927        N  0.17759375  0.87448348  0.12467825    -0.63970
N928        N  0.13388444  0.84622881  0.18128428    -0.05800
N929        N  0.13415913  0.84809775  0.20368840    -0.64660
Mn930      Mn  0.12111196  0.86399383  0.13188509     1.10660
C931        C  0.12178049  0.86696636  0.20793531     0.98320
C932        C  0.19729994  0.86416173  0.13263242     0.98390
N933        N  0.15669852  0.77574348  0.13466932    -0.06910
N934        N  0.17010515  0.76008152  0.12553962    -0.62290
N935        N  0.13165393  0.79344938  0.18273957    -0.06230
N936        N  0.13206855  0.78865444  0.20489211    -0.59010
N937        N  0.11955602  0.77817924  0.17165788    -0.07540
N938        N  0.11131447  0.76281929  0.18585296    -0.61850
N939        N  0.16881362  0.79130860  0.14527641    -0.06530
N940        N  0.19090853  0.78640469  0.14376502    -0.59040
Mn941      Mn  0.11955167  0.77624084  0.13463241     1.20190
Mn942      Mn  0.15136321  0.81900296  0.16373889     1.10090
Cl943      Cl  0.12073561  0.81975688  0.13316267    -0.87010
C944        C  0.19145919  0.76687590  0.13117984     0.95320
C945        C  0.11888026  0.76971947  0.20655218     0.95120
N946        N  0.08324377  0.62710965  0.36828895    -0.07160
N947        N  0.06695246  0.63647422  0.38145738    -0.59280
N948        N  0.10941864  0.57848406  0.35181839    -0.06840
N949        N  0.10960453  0.55607485  0.35333768    -0.61410
N950        N  0.12145904  0.58813638  0.36831147    -0.06440
N951        N  0.13027971  0.57158230  0.38157981    -0.59260
N952        N  0.07329302  0.61510769  0.35194804    -0.06120
N953        N  0.05088654  0.61569956  0.35363262    -0.61760
C954        C  0.04688986  0.62883887  0.37198301     0.95010
C955        C  0.12244314  0.55174045  0.37178880     0.94790
N956        N  0.12040992  0.58795345  0.28294701    -0.07350
N957        N  0.12951016  0.57339263  0.26824634    -0.59860
N958        N  0.07234766  0.61526484  0.29914984    -0.05470
N959        N  0.05007000  0.61776455  0.29620388    -0.61110
N960        N  0.08359271  0.62602457  0.28298753    -0.07380
N961        N  0.06936812  0.63625314  0.26872882    -0.60130
N962        N  0.10920456  0.57700659  0.29901903    -0.05110
N963        N  0.11026451  0.55463255  0.29554294    -0.61200
Mn964      Mn  0.09080252  0.59620389  0.32561119     1.18440
C965        C  0.12335607  0.55263893  0.27644961     0.97100
C966        C  0.04852842  0.63125769  0.27733941     0.97760
N967        N  0.16229790  0.62819621  0.36662449    -0.07400
N968        N  0.17959310  0.61984626  0.37929888    -0.63710
N969        N  0.13477336  0.67596722  0.34912513    -0.06200
N970        N  0.13501339  0.69843056  0.34988988    -0.64380
N971        N  0.12371343  0.66707089  0.36667595    -0.06900
N972        N  0.11596060  0.68421260  0.37983661    -0.63970
N973        N  0.17105332  0.63929345  0.34900760    -0.05800
N974        N  0.19348182  0.63882641  0.34911178    -0.64660
Mn975      Mn  0.12272020  0.62762176  0.36923979     1.10660
C976        C  0.19895401  0.62661711  0.36772732     0.98320
C977        C  0.12334190  0.70374421  0.36893144     0.98390
N978        N  0.12098780  0.66265260  0.28124052    -0.06910
N979        N  0.11289380  0.67640007  0.26522777    -0.62290
N980        N  0.16951684  0.63701971  0.29659366    -0.06230
N981        N  0.19137852  0.63735060  0.29087475    -0.59010
N982        N  0.15776398  0.62487528  0.28187053    -0.07540
N983        N  0.17128607  0.61633698  0.26603151    -0.61850
N984        N  0.13249164  0.67433332  0.29654372    -0.06530
N985        N  0.13265270  0.69632703  0.29128025    -0.59040
Mn986      Mn  0.12067740  0.62529817  0.28164996     1.20190
Mn987      Mn  0.15207696  0.65682683  0.32296673     1.10090
Cl988      Cl  0.12157624  0.62646384  0.32513459    -0.87010
C989        C  0.12008852  0.69733194  0.27187846     0.95320
C990        C  0.19215568  0.62426274  0.27178178     0.95120
N991        N  0.77325322  0.12236314  0.09693573    -0.07160
N992        N  0.75717895  0.13051583  0.08352856    -0.59280
N993        N  0.79000979  0.07407143  0.12344819    -0.06840
N994        N  0.78612030  0.05179586  0.12537624    -0.61410
N995        N  0.77443916  0.08575325  0.13464385    -0.06440
N996        N  0.75976597  0.07199404  0.14460573    -0.59260
N997        N  0.78846287  0.11076466  0.08517831    -0.06120
N998        N  0.78290262  0.11045841  0.06318647    -0.61760
C999        C  0.76339426  0.12316717  0.06254112     0.95010
C1000       C  0.76718301  0.05079797  0.13888305     0.94790
N1001       N  0.85928967  0.08710116  0.13357716    -0.07350
N1002       N  0.87311850  0.07121022  0.14274116    -0.59860
N1003       N  0.84108963  0.11185939  0.08509353    -0.05470
N1004       N  0.84270724  0.11074297  0.06271010    -0.61110
N1005       N  0.85753275  0.12436420  0.09415143    -0.07380
N1006       N  0.87080842  0.13205784  0.07715110    -0.60130
N1007       N  0.84294555  0.07660643  0.12207253    -0.05110
N1008       N  0.84529118  0.05425950  0.12270874    -0.61200
Mn1009     Mn  0.81574481  0.09304767  0.10371408     1.18440
C1010       C  0.86401434  0.05086293  0.13542839     0.97100
C1011       C  0.86113734  0.12324875  0.05756724     0.97760
N1012       N  0.77294481  0.12315549  0.17042396    -0.07400
N1013       N  0.75728291  0.11370111  0.18326652    -0.63710
N1014       N  0.78530270  0.17257164  0.14474542    -0.06200
N1015       N  0.77863759  0.19429437  0.14361453    -0.64380
N1016       N  0.77136337  0.15963340  0.13298982    -0.06900
N1017       N  0.75519280  0.17198751  0.12341890    -0.63970
N1018       N  0.78676053  0.13575421  0.18269190    -0.05800
N1019       N  0.78031378  0.13538897  0.20450671    -0.64660
Mn1020     Mn  0.77288233  0.12275335  0.13371338     1.10660
C1021       C  0.76180079  0.12127181  0.20448371     0.98320
C1022       C  0.75969056  0.19355004  0.13009828     0.98390
N1023       N  0.85561807  0.16631860  0.13413208    -0.06910
N1024       N  0.86796793  0.18360115  0.12550815    -0.62290
N1025       N  0.84015833  0.13906901  0.18272573    -0.06230
N1026       N  0.84129803  0.13829897  0.20520593    -0.59010
N1027       N  0.85747653  0.12803656  0.17307772    -0.07540
N1028       N  0.87077640  0.11926683  0.18958189    -0.61850
N1029       N  0.83815092  0.17514635  0.14557693    -0.06530
N1030       N  0.83809147  0.19764162  0.14486846    -0.59040
Mn1031     Mn  0.85933206  0.12664238  0.13368885     1.20190
Mn1032     Mn  0.81275819  0.15598286  0.16435688     1.10090
Cl1033     Cl  0.81586117  0.12467080  0.13390042    -0.87010
C1034       C  0.85655604  0.20313999  0.13242260     0.95320
C1035       C  0.86033861  0.12612024  0.20949344     0.95120
N1036       N  0.85621842  0.58781805  0.63128286    -0.07160
N1037       N  0.86794371  0.57032500  0.64055999    -0.59280
N1038       N  0.84236222  0.61606455  0.58326888    -0.06840
N1039       N  0.84492372  0.61598455  0.56092542    -0.61410
N1040       N  0.85912776  0.62703736  0.59365556    -0.06440
N1041       N  0.87350924  0.63498147  0.57772478    -0.59260
N1042       N  0.83929619  0.57934796  0.61896649    -0.06120
N1043       N  0.83908036  0.55690433  0.61947859    -0.61760
C1044       C  0.85663245  0.55115140  0.63304310     0.95010
C1045       C  0.86429889  0.62755073  0.55743175     0.94790
N1046       N  0.77372763  0.63102384  0.59209884    -0.07350
N1047       N  0.75877874  0.63995057  0.57765879    -0.59860
N1048       N  0.78617213  0.58119121  0.61708355    -0.05470
N1049       N  0.77933846  0.55966598  0.61530749    -0.61110
N1050       N  0.77106482  0.59330655  0.62855014    -0.07380
N1051       N  0.75395872  0.58046727  0.63521394    -0.60130
N1052       N  0.78943902  0.61932124  0.58099946    -0.05110
N1053       N  0.78547732  0.61991317  0.55871539    -0.61200
Mn1054     Mn  0.81454897  0.59875864  0.59987031     1.18440
C1055       C  0.76634219  0.63300748  0.55684008     0.97100
C1056       C  0.75916817  0.55958360  0.62683604     0.97760
N1057       N  0.85871331  0.66721698  0.63524452    -0.07400
N1058       N  0.87216866  0.68457126  0.62846961    -0.63710
N1059       N  0.83934735  0.63868834  0.68172516    -0.06200
N1060       N  0.84015593  0.63847822  0.70420361    -0.64380
N1061       N  0.85655690  0.62720743  0.67256056    -0.06900
N1062       N  0.86949552  0.61864412  0.68949479    -0.63970
N1063       N  0.84124912  0.67607971  0.64650610    -0.05800
N1064       N  0.84223638  0.69841970  0.64760287    -0.64660
Mn1065     Mn  0.85945000  0.62729294  0.63312864     1.10660
C1066       C  0.86137969  0.70409940  0.63663179     0.98320
C1067       C  0.85883188  0.62600148  0.70919575     0.98390
N1068       N  0.77100471  0.62911641  0.66698824    -0.06910
N1069       N  0.75573092  0.61941423  0.68044556    -0.62290
N1070       N  0.78948688  0.67759657  0.64310165    -0.06230
N1071       N  0.78589445  0.69994672  0.64308749    -0.59010
N1072       N  0.77419970  0.66722190  0.63046791    -0.07540
N1073       N  0.75991350  0.68215041  0.62140550    -0.61850
N1074       N  0.78681505  0.63916967  0.67924806    -0.06530
N1075       N  0.78269014  0.63666763  0.70133407    -0.59040
Mn1076     Mn  0.77195481  0.63027612  0.62953974     1.20190
Mn1077     Mn  0.81429804  0.65794112  0.66284683     1.10090
Cl1078     Cl  0.81533548  0.62852344  0.63131389    -0.87010
C1079       C  0.76334618  0.62404283  0.70185537     0.95320
C1080       C  0.76761728  0.70251663  0.62910216     0.95120
N1081       N  0.12249479  0.09241711  0.77990392    -0.07160
N1082       N  0.13022999  0.07846660  0.76385022    -0.59280
N1083       N  0.07451568  0.11847670  0.79715381    -0.06840
N1084       N  0.05238667  0.11868262  0.79250347    -0.61410
N1085       N  0.08581927  0.13042296  0.78192557    -0.06440
N1086       N  0.07179337  0.13930928  0.76671295    -0.59260
N1087       N  0.11143226  0.08092191  0.79566214    -0.06120
N1088       N  0.11117174  0.05887955  0.79075785    -0.61760
C1089       C  0.12310795  0.05760315  0.77096475     0.95010
C1090       C  0.05096833  0.13205329  0.77358230     0.94790
N1091       N  0.08419611  0.12748204  0.86656186    -0.07350
N1092       N  0.06708931  0.13577163  0.87952134    -0.59860
N1093       N  0.11178425  0.07987369  0.84824305    -0.05470
N1094       N  0.11289913  0.05743349  0.84832589    -0.61110
N1095       N  0.12307244  0.08889377  0.86558415    -0.07380
N1096       N  0.13214463  0.07186010  0.87807714    -0.60130
N1097       N  0.07515722  0.11613882  0.84932111    -0.05110
N1098       N  0.05279133  0.11633485  0.85001049    -0.61200
Mn1099     Mn  0.09312462  0.09866654  0.82275526     1.18440
C1100       C  0.04746307  0.12849748  0.86867478     0.97100
C1101       C  0.12549756  0.05233369  0.86680477     0.97760
N1102       N  0.12303979  0.16711760  0.78157830    -0.07400
N1103       N  0.11392869  0.18150870  0.76667935    -0.63710
N1104       N  0.17201034  0.14055993  0.79582232    -0.06200
N1105       N  0.19391019  0.14024034  0.78993363    -0.64380
N1106       N  0.15981663  0.12920666  0.78083423    -0.06900
N1107       N  0.17294520  0.12052587  0.76481841    -0.63970
N1108       N  0.13498237  0.17818203  0.79697640    -0.05800
N1109       N  0.13451305  0.20042440  0.79283171    -0.64660
Mn1110     Mn  0.12281421  0.12982772  0.78061118     1.10660
C1111       C  0.12089443  0.20223906  0.77414233     0.98320
C1112       C  0.19420697  0.12740463  0.77054167     0.98390
N1113       N  0.16319153  0.12911710  0.86587678    -0.06910
N1114       N  0.17986661  0.12007928  0.87880214    -0.62290
N1115       N  0.13604987  0.17742364  0.84963452    -0.06230
N1116       N  0.13472865  0.19986448  0.85037924    -0.59010
N1117       N  0.12455266  0.16777646  0.86655842    -0.07540
N1118       N  0.11514274  0.18431723  0.87939290    -0.61850
N1119       N  0.17265060  0.14093562  0.84906319    -0.06530
N1120       N  0.19509575  0.14056661  0.85022362    -0.59040
Mn1121     Mn  0.12375320  0.12832847  0.86805358     1.20190
Mn1122     Mn  0.15430004  0.15951934  0.82301435     1.10090
Cl1123     Cl  0.12362025  0.12907672  0.82414576    -0.87010
C1124       C  0.19962629  0.12769452  0.86868060     0.95320
C1125       C  0.12185641  0.20422087  0.86884581     0.95120
N1126       N  0.62089966  0.36349146  0.09389091    -0.07160
N1127       N  0.62978050  0.37601932  0.07688078    -0.59280
N1128       N  0.57370363  0.34757474  0.12263631    -0.06840
N1129       N  0.55135706  0.34932401  0.12364402    -0.61410
N1130       N  0.58397245  0.36422867  0.13389836    -0.06440
N1131       N  0.56786349  0.37781845  0.14307533    -0.59260
N1132       N  0.60821914  0.34716632  0.08479872    -0.06120
N1133       N  0.60802479  0.34817166  0.06233754    -0.61760
C1134       C  0.62132618  0.36604944  0.05734516     0.95010
C1135       C  0.54763922  0.36803488  0.13627121     0.94790
N1136       N  0.58472089  0.27950011  0.13421111    -0.07350
N1137       N  0.57170166  0.26387564  0.14348892    -0.59860
N1138       N  0.60756291  0.29439305  0.08396431    -0.05470
N1139       N  0.60666027  0.29030890  0.06174525    -0.61110
N1140       N  0.61943064  0.27842774  0.09453064    -0.07380
N1141       N  0.62710784  0.26309606  0.07977987    -0.60130
N1142       N  0.57237595  0.29459195  0.12299671    -0.05110
N1143       N  0.55041635  0.28903721  0.12386061    -0.61200
Mn1144     Mn  0.59018632  0.32109894  0.10340776     1.18440
C1145       C  0.55040118  0.26965484  0.13681754     0.97100
C1146       C  0.61911014  0.27083907  0.05941956     0.97760
N1147       N  0.62608075  0.36213653  0.17283579    -0.07400
N1148       N  0.61814337  0.37465128  0.19038615    -0.63710
N1149       N  0.67253625  0.34431674  0.14345570    -0.06200
N1150       N  0.69494423  0.34525036  0.14348973    -0.64380
N1151       N  0.66319117  0.36212076  0.13298073    -0.06900
N1152       N  0.68005455  0.37567293  0.12550463    -0.63970
N1153       N  0.63770377  0.34456550  0.18122471    -0.05800
N1154       N  0.63793761  0.34460749  0.20368080    -0.64660
Mn1155     Mn  0.62358072  0.36490900  0.13339380     1.10660
C1156       C  0.62581478  0.36321889  0.20959605     0.98320
C1157       C  0.69983376  0.36466780  0.13236103     0.98390
N1158       N  0.65847709  0.27704466  0.12992982    -0.06910
N1159       N  0.67119032  0.26095008  0.12065044    -0.62290
N1160       N  0.63571327  0.29220498  0.18029469    -0.06230
N1161       N  0.63633501  0.28712704  0.20235537    -0.59010
N1162       N  0.62331685  0.27734717  0.16906864    -0.07540
N1163       N  0.61498085  0.26185325  0.18312571    -0.61850
N1164       N  0.67115436  0.29151641  0.14135210    -0.06530
N1165       N  0.69296500  0.28533838  0.14034293    -0.59040
Mn1166     Mn  0.62151562  0.27773587  0.13187823     1.20190
Mn1167     Mn  0.65451008  0.31827598  0.16169157     1.10090
Cl1168     Cl  0.62250551  0.32110867  0.13249926    -0.87010
C1169       C  0.69273561  0.26625486  0.12709107     0.95320
C1170       C  0.62302244  0.26831427  0.20382167     0.95120
N1171       N  0.08798617  0.27547901  0.62954519    -0.07160
N1172       N  0.07483436  0.25993912  0.63891831    -0.59280
N1173       N  0.11330014  0.29292229  0.58151424    -0.06840
N1174       N  0.11427024  0.28967991  0.55917607    -0.61410
N1175       N  0.12529503  0.27726395  0.59243723    -0.06440
N1176       N  0.13477618  0.26292277  0.57767255    -0.59260
N1177       N  0.07571127  0.29080010  0.61854255    -0.06120
N1178       N  0.05367238  0.28583722  0.62010610    -0.61760
C1179       C  0.05345120  0.26651798  0.63315535     0.95010
C1180       C  0.12804636  0.27113533  0.55694883     0.94790
N1181       N  0.12146738  0.36246325  0.59133449    -0.07350
N1182       N  0.12957741  0.37594943  0.57466110    -0.59860
N1183       N  0.07404332  0.34377029  0.61809763    -0.05470
N1184       N  0.05164021  0.34401885  0.61816971    -0.61110
N1185       N  0.08264384  0.36122287  0.62949489    -0.07380
N1186       N  0.06523724  0.37383666  0.63768982    -0.60130
N1187       N  0.11035114  0.34529961  0.58181329    -0.05110
N1188       N  0.11052669  0.34656651  0.55935296    -0.61200
Mn1189     Mn  0.09310546  0.31832753  0.59986426     1.18440
C1190       C  0.12234548  0.36558174  0.55483102     0.97100
C1191       C  0.04591677  0.36259583  0.63034410     0.97760
N1192       N  0.16181880  0.27758511  0.63122883    -0.07400
N1193       N  0.17600925  0.26245150  0.62257918    -0.63710
N1194       N  0.13483795  0.29240366  0.67922209    -0.06200
N1195       N  0.13429742  0.28826950  0.70140533    -0.64380
N1196       N  0.12434016  0.27620981  0.66778436    -0.06900
N1197       N  0.11625809  0.26060299  0.68200493    -0.63970
N1198       N  0.17294727  0.29301849  0.64303010    -0.05800
N1199       N  0.19523522  0.28854650  0.64265623    -0.64660
Mn1200     Mn  0.12490555  0.27605229  0.63016982     1.10660
C1201       C  0.19683447  0.26935649  0.62954906     0.98320
C1202       C  0.12248665  0.26853209  0.70288393     0.98390
N1203       N  0.12249486  0.36200131  0.67032160    -0.06910
N1204       N  0.11302504  0.37481873  0.68683843    -0.62290
N1205       N  0.17113939  0.34573943  0.64411639    -0.06230
N1206       N  0.19350373  0.34643184  0.64404422    -0.59010
N1207       N  0.16191118  0.36279997  0.63239426    -0.07540
N1208       N  0.17892447  0.37570205  0.62402276    -0.61850
N1209       N  0.13421943  0.34515813  0.67999142    -0.06530
N1210       N  0.13318101  0.34606393  0.70247577    -0.59040
Mn1211     Mn  0.12215874  0.36392274  0.63085555     1.20190
Mn1212     Mn  0.15344676  0.31928529  0.66178254     1.10090
Cl1213     Cl  0.12341837  0.31965193  0.63064953    -0.87010
C1214       C  0.12007227  0.36446291  0.70679585     0.95320
C1215       C  0.19860314  0.36491339  0.63158760     0.95120
N1216       N  0.12745730  0.39496908  0.09122005    -0.07160
N1217       N  0.12083529  0.38268632  0.07296325    -0.59280
N1218       N  0.17361290  0.41075231  0.12194083    -0.06840
N1219       N  0.19599457  0.40991270  0.12324046    -0.61410
N1220       N  0.16392998  0.39288912  0.13176184    -0.06440
N1221       N  0.18051658  0.37923193  0.14006169    -0.59260
N1222       N  0.13937933  0.41256906  0.08374715    -0.06120
N1223       N  0.14110601  0.41274389  0.06138100    -0.61760
C1224       C  0.12945040  0.39446082  0.05434609     0.95010
C1225       C  0.20042924  0.39039959  0.13442199     0.94790
N1226       N  0.16141471  0.47855375  0.13645515    -0.07350
N1227       N  0.17517552  0.49401499  0.14517417    -0.59860
N1228       N  0.13788452  0.46480245  0.08633626    -0.05470
N1229       N  0.13771604  0.46893782  0.06413217    -0.61110
N1230       N  0.12593997  0.48033821  0.09742180    -0.07380
N1231       N  0.11717972  0.49544854  0.08299446    -0.60130
N1232       N  0.17320107  0.46300845  0.12524318    -0.05110
N1233       N  0.19528113  0.46754951  0.12594937    -0.61200
Mn1234     Mn  0.15612992  0.43771163  0.10428095     1.18440
C1235       C  0.19626988  0.48676179  0.13876920     0.97100
C1236       C  0.12433312  0.48776725  0.06231713     0.97760
N1237       N  0.12141466  0.39204064  0.17021678    -0.07400
N1238       N  0.12920845  0.37827304  0.18685215    -0.63710
N1239       N  0.07507110  0.41106716  0.14176356    -0.06200
N1240       N  0.05267675  0.41032753  0.14120943    -0.64380
N1241       N  0.08457596  0.39382218  0.13051434    -0.06900
N1242       N  0.06779683  0.38062950  0.12222103    -0.63970
N1243       N  0.10924932  0.40866827  0.17970190    -0.05800
N1244       N  0.10804105  0.40649729  0.20203483    -0.64660
Mn1245     Mn  0.12428192  0.39154201  0.13080231     1.10660
C1246       C  0.12032501  0.38764144  0.20655255     0.98320
C1247       C  0.04800034  0.39153851  0.12911935     0.98390
N1248       N  0.08692024  0.47971391  0.13314295    -0.06910
N1249       N  0.07300754  0.49528432  0.12435785    -0.62290
N1250       N  0.11060562  0.46165825  0.18229684    -0.06230
N1251       N  0.11017237  0.46489515  0.20470296    -0.59010
N1252       N  0.12240862  0.47782160  0.17216850    -0.07540
N1253       N  0.13048115  0.49236104  0.18739713    -0.61850
N1254       N  0.07522894  0.46350845  0.14327688    -0.06530
N1255       N  0.05306493  0.46762095  0.14174776    -0.59040
Mn1256     Mn  0.12419367  0.47973102  0.13479753     1.20190
Mn1257     Mn  0.09243135  0.43612247  0.16190783     1.10090
Cl1258     Cl  0.12421652  0.43573456  0.13295799    -0.87010
C1259       C  0.05191743  0.48732998  0.12956572     0.95320
C1260       C  0.12278156  0.48406300  0.20764635     0.95120
N1261       N  0.41154808  0.37840713  0.23502098    -0.07160
N1262       N  0.42557369  0.37015760  0.25076040    -0.59280
N1263       N  0.38590592  0.42757044  0.22022938    -0.06840
N1264       N  0.38608731  0.44946422  0.22607209    -0.61410
N1265       N  0.37404052  0.41567356  0.23504205    -0.06440
N1266       N  0.36544671  0.42901074  0.25101220    -0.59260
N1267       N  0.42293669  0.38993399  0.21951265    -0.06120
N1268       N  0.44499961  0.38992036  0.22426999    -0.61760
C1269       C  0.44641219  0.37709169  0.24351912     0.95010
C1270       C  0.37298811  0.45002331  0.24522949     0.94790
N1271       N  0.37554794  0.41986320  0.15008143    -0.07350
N1272       N  0.36746090  0.43740979  0.13754279    -0.59860
N1273       N  0.42309796  0.39190885  0.16688715    -0.05470
N1274       N  0.44552209  0.39159222  0.16602494    -0.61110
N1275       N  0.41382036  0.38104161  0.14938343    -0.07380
N1276       N  0.43068509  0.37296171  0.13606539    -0.60130
N1277       N  0.38706076  0.42835426  0.16755179    -0.05110
N1278       N  0.38715143  0.45075275  0.16740730    -0.61200
Mn1279     Mn  0.40491251  0.40958293  0.19340128     1.18440
C1280       C  0.37479610  0.45659356  0.14907706     0.97100
C1281       C  0.45031183  0.37994058  0.14692058     0.97760
N1282       N  0.33712422  0.37941286  0.23371915    -0.07400
N1283       N  0.32339158  0.38860714  0.24897701    -0.63710
N1284       N  0.36236267  0.33049764  0.21825599    -0.06200
N1285       N  0.36178194  0.30840824  0.22318050    -0.64380
N1286       N  0.37406487  0.34163587  0.23378010    -0.06900
N1287       N  0.38192794  0.32751923  0.24953404    -0.63970
N1288       N  0.32539456  0.36827072  0.21823734    -0.05800
N1289       N  0.30324083  0.36927133  0.22282317    -0.64660
Mn1290     Mn  0.37421144  0.37868768  0.23479559     1.10660
C1291       C  0.30230455  0.38231437  0.24198463     0.98320
C1292       C  0.37434686  0.30686476  0.24259259     0.98390
N1293       N  0.37315064  0.34063811  0.14858414    -0.06910
N1294       N  0.38142474  0.32380732  0.13531514    -0.62290
N1295       N  0.32536079  0.36738565  0.16561234    -0.06230
N1296       N  0.30296468  0.36689152  0.16408385    -0.59010
N1297       N  0.33471311  0.37923961  0.14878056    -0.07540
N1298       N  0.31791359  0.38734434  0.13535761    -0.61850
N1299       N  0.36174706  0.33124699  0.16570245    -0.06530
N1300       N  0.36195161  0.30882875  0.16471172    -0.59040
Mn1301     Mn  0.37430192  0.38028216  0.14726861     1.20190
Mn1302     Mn  0.34352255  0.34916945  0.19186279     1.10090
Cl1303     Cl  0.37426974  0.37941106  0.19121353    -0.87010
C1304       C  0.37407808  0.30411192  0.14591085     0.95320
C1305       C  0.29824845  0.37915594  0.14530566     0.95120
N1306       N  0.66278756  0.62670369  0.39903319    -0.07160
N1307       N  0.67993387  0.63516778  0.38630630    -0.59280
N1308       N  0.63680838  0.57802978  0.41482416    -0.06840
N1309       N  0.63687744  0.55558581  0.41363975    -0.61410
N1310       N  0.62516948  0.58746687  0.39782806    -0.06440
N1311       N  0.61692944  0.57074898  0.38454945    -0.59260
N1312       N  0.67191001  0.61527770  0.41635714    -0.06120
N1313       N  0.69431465  0.61576432  0.41609259    -0.61760
C1314       C  0.69951843  0.62805665  0.39754000     0.95010
C1315       C  0.62467081  0.55098350  0.39484685     0.94790
N1316       N  0.62340194  0.58729642  0.48339428    -0.07350
N1317       N  0.61368766  0.57225069  0.49713652    -0.59860
N1318       N  0.67134003  0.61511078  0.46880718    -0.05470
N1319       N  0.69352516  0.61752319  0.47230359    -0.61110
N1320       N  0.65958212  0.62573793  0.48475825    -0.07380
N1321       N  0.67342317  0.63571373  0.49946858    -0.60130
N1322       N  0.63514488  0.57679542  0.46734502    -0.05110
N1323       N  0.63389348  0.55435733  0.46981082    -0.61200
Mn1324     Mn  0.65397550  0.59613953  0.44171463     1.18440
C1325       C  0.62014420  0.55177219  0.48827193     0.97100
C1326       C  0.69456649  0.63070076  0.49136614     0.97760
N1327       N  0.58316492  0.62691277  0.39830254    -0.07400
N1328       N  0.56641706  0.61901452  0.38477265    -0.63710
N1329       N  0.60803547  0.67487763  0.41647524    -0.06200
N1330       N  0.60559632  0.69719410  0.41489227    -0.64380
N1331       N  0.61989358  0.66632684  0.39920025    -0.06900
N1332       N  0.62596008  0.68361486  0.38545289    -0.63970
N1333       N  0.57363120  0.63737188  0.41596877    -0.05800
N1334       N  0.55124817  0.63682861  0.41512954    -0.64660
Mn1335     Mn  0.62288470  0.62691011  0.39680516     1.10660
C1336       C  0.54658613  0.62548719  0.39584981     0.98320
C1337       C  0.61647818  0.70274988  0.39554416     0.98390
N1338       N  0.62093491  0.66237595  0.48512195    -0.06910
N1339       N  0.62979136  0.67685179  0.50000308    -0.62290
N1340       N  0.57353137  0.63536434  0.46842240    -0.06230
N1341       N  0.55147640  0.63534285  0.47338412    -0.59010
N1342       N  0.58516342  0.62368058  0.48374469    -0.07540
N1343       N  0.57135179  0.61509449  0.49926997    -0.61850
N1344       N  0.60944671  0.67354731  0.46927977    -0.06530
N1345       N  0.61008298  0.69582855  0.47300289    -0.59040
Mn1346     Mn  0.62229714  0.62474783  0.48498432     1.20190
Mn1347     Mn  0.59110880  0.65539285  0.44245593     1.10090
Cl1348     Cl  0.62262036  0.62586404  0.44120897    -0.87010
C1349       C  0.62287848  0.69768699  0.49220305     0.95320
C1350       C  0.55041505  0.62248901  0.49264505     0.95120
N1351       N  0.52426199  0.34137458  0.38274747    -0.07160
N1352       N  0.50780586  0.32807649  0.37532947    -0.59280
N1353       N  0.53922516  0.36652513  0.43189900    -0.06840
N1354       N  0.53379583  0.36728063  0.45395689    -0.61410
N1355       N  0.52457043  0.37855005  0.41979444    -0.06440
N1356       N  0.50927598  0.38816432  0.43310084    -0.59260
N1357       N  0.53929107  0.32947842  0.39456604    -0.06120
N1358       N  0.53329679  0.30769534  0.39561904    -0.61760
C1359       C  0.51374097  0.30709086  0.38320568     0.95010
C1360       C  0.51501318  0.38111431  0.45439492     0.94790
N1361       N  0.60917901  0.37595966  0.42309475    -0.07350
N1362       N  0.62230810  0.38379556  0.44014998    -0.59860
N1363       N  0.59195923  0.32872614  0.39568635    -0.05470
N1364       N  0.59279095  0.30626398  0.39518913    -0.61110
N1365       N  0.60902988  0.33802445  0.38420264    -0.07380
N1366       N  0.62198832  0.32117148  0.37546638    -0.60130
N1367       N  0.59183437  0.36473958  0.43214830    -0.05110
N1368       N  0.59250669  0.36467616  0.45457317    -0.61200
Mn1369     Mn  0.56576766  0.34714223  0.41378992     1.18440
C1370       C  0.61135898  0.37642115  0.45964655     0.97100
C1371       C  0.61137906  0.30148886  0.38267772     0.97760
N1372       N  0.52417388  0.41570315  0.38318526    -0.07400
N1373       N  0.50869715  0.42910774  0.39259727    -0.63710
N1374       N  0.54006999  0.39082043  0.33442750    -0.06200
N1375       N  0.53565916  0.39078204  0.31223881    -0.64380
N1376       N  0.52469947  0.37890192  0.34557419    -0.06900
N1377       N  0.50953592  0.37029738  0.33133806    -0.63970
N1378       N  0.53951998  0.42779695  0.37225355    -0.05800
N1379       N  0.53458324  0.44996077  0.37378757    -0.64660
Mn1380     Mn  0.52402791  0.37855607  0.38274751     1.10660
C1381       C  0.51528016  0.45050349  0.38680413     0.98320
C1382       C  0.51688798  0.37742603  0.31059256     0.98390
N1383       N  0.60936232  0.37915328  0.34411792    -0.06910
N1384       N  0.62249503  0.37063572  0.32735093    -0.62290
N1385       N  0.59268584  0.42705139  0.37154927    -0.06230
N1386       N  0.59424656  0.44946325  0.37168327    -0.59010
N1387       N  0.60959861  0.41714261  0.38296586    -0.07540
N1388       N  0.62312433  0.43352496  0.39138066    -0.61850
N1389       N  0.59276079  0.39144732  0.33474958    -0.06530
N1390       N  0.59423994  0.39185518  0.31231029    -0.59040
Mn1391     Mn  0.61106471  0.37754534  0.38358878     1.20190
Mn1392     Mn  0.56641155  0.40957644  0.35306283     1.10090
Cl1393     Cl  0.56710919  0.37820164  0.38327452    -0.87010
C1394       C  0.61266358  0.37895873  0.30759632     0.95320
C1395       C  0.61312161  0.45354468  0.38389997     0.95120
N1396       N  0.35884578  0.08905326  0.63166850    -0.07160
N1397       N  0.37157966  0.07174298  0.63979952    -0.59280
N1398       N  0.34536071  0.11631951  0.58343182    -0.06840
N1399       N  0.34709772  0.11644476  0.56105363    -0.61410
N1400       N  0.36222957  0.12752173  0.59339344    -0.06440
N1401       N  0.37593557  0.13578972  0.57698067    -0.59260
N1402       N  0.34185920  0.08038672  0.61956120    -0.06120
N1403       N  0.34274313  0.05790842  0.61889136    -0.61760
C1404       C  0.36127324  0.05245312  0.63127412     0.95010
C1405       C  0.36607750  0.12834016  0.55694246     0.94790
N1406       N  0.27893565  0.13445063  0.59134156    -0.07350
N1407       N  0.26368937  0.14311745  0.57722308    -0.59860
N1408       N  0.28864991  0.08388086  0.61761145    -0.05470
N1409       N  0.28140198  0.06242237  0.61721666    -0.61110
N1410       N  0.27378821  0.09708484  0.62808655    -0.07380
N1411       N  0.25637164  0.08507188  0.63544729    -0.60130
N1412       N  0.29305685  0.12074094  0.58048459    -0.05110
N1413       N  0.28736834  0.11936306  0.55858381    -0.61200
Mn1414     Mn  0.31737523  0.10001180  0.60020794     1.18440
C1415       C  0.26905357  0.13363877  0.55686608     0.97100
C1416       C  0.26111885  0.06353331  0.62853484     0.97760
N1417       N  0.36227263  0.16820688  0.63426493    -0.07400
N1418       N  0.37543996  0.18449419  0.62499659    -0.63710
N1419       N  0.34152969  0.14143469  0.68131791    -0.06200
N1420       N  0.34086679  0.14040596  0.70372177    -0.64380
N1421       N  0.35852490  0.12911977  0.67275865    -0.06900
N1422       N  0.36983762  0.11931185  0.69024154    -0.63970
N1423       N  0.34565429  0.17833424  0.64587979    -0.05800
N1424       N  0.34706985  0.20073678  0.64505482    -0.64660
Mn1425     Mn  0.36244427  0.12847758  0.63310761     1.10660
C1426       C  0.36558660  0.20468637  0.63226897     0.98320
C1427       C  0.35816616  0.12649002  0.70948687     0.98390
N1428       N  0.27415412  0.13357002  0.66503424    -0.06910
N1429       N  0.25721629  0.12513193  0.67696834    -0.62290
N1430       N  0.29355316  0.18187366  0.64179674    -0.06230
N1431       N  0.28950530  0.20425032  0.64119225    -0.59010
N1432       N  0.27914675  0.17101838  0.62859802    -0.07540
N1433       N  0.26522326  0.18549118  0.61850290    -0.61850
N1434       N  0.28871619  0.14406954  0.67835859    -0.06530
N1435       N  0.28164830  0.14334692  0.69993856    -0.59040
Mn1436     Mn  0.27635810  0.13413933  0.62822271     1.20190
Mn1437     Mn  0.31755241  0.16163238  0.66224886     1.10090
Cl1438     Cl  0.31908818  0.13094677  0.63103405    -0.87010
C1439       C  0.26181271  0.13134136  0.69866454     0.95320
C1440       C  0.27176762  0.20624625  0.62626868     0.95120
N1441       N  0.27213819  0.62551523  0.09868168    -0.07160
N1442       N  0.25546814  0.63320288  0.08565444    -0.59280
N1443       N  0.29040345  0.57756412  0.12361586    -0.06840
N1444       N  0.28500171  0.55560294  0.12261574    -0.61410
N1445       N  0.27559075  0.58876622  0.13625129    -0.06440
N1446       N  0.26013758  0.57487912  0.14462123    -0.59260
N1447       N  0.28750508  0.61466953  0.08640478    -0.06120
N1448       N  0.28149913  0.61441339  0.06455008    -0.61760
C1449       C  0.26154623  0.62636832  0.06439109     0.95010
C1450       C  0.26614174  0.55429159  0.13607062     0.94790
N1451       N  0.35991908  0.58988390  0.13195567    -0.07350
N1452       N  0.37454586  0.57366473  0.13908430    -0.59860
N1453       N  0.34001062  0.61584026  0.08489349    -0.05470
N1454       N  0.34128653  0.61377306  0.06263734    -0.61110
N1455       N  0.35749560  0.62723441  0.09337321    -0.07380
N1456       N  0.37127892  0.63296566  0.07594572    -0.60130
N1457       N  0.34308766  0.57989223  0.12073446    -0.05110
N1458       N  0.34583429  0.55762148  0.11961136    -0.61200
Mn1459     Mn  0.31539504  0.59689561  0.10377944     1.18440
C1460       C  0.36543372  0.55369613  0.13074458     0.97100
C1461       C  0.36065920  0.62417602  0.05679581     0.97760
N1462       N  0.27510203  0.62570369  0.17250048    -0.07400
N1463       N  0.26005149  0.61655082  0.18631000    -0.63710
N1464       N  0.28596149  0.67551803  0.14579306    -0.06200
N1465       N  0.27977271  0.69734244  0.14403189    -0.64380
N1466       N  0.27116433  0.66250077  0.13524017    -0.06900
N1467       N  0.25480455  0.67488134  0.12595543    -0.63970
N1468       N  0.28924010  0.63884389  0.18379198    -0.05800
N1469       N  0.28372070  0.63936569  0.20579493    -0.64660
Mn1470     Mn  0.27322119  0.62559828  0.13573428     1.10660
C1471       C  0.26554074  0.62505907  0.20703669     0.98320
C1472       C  0.26025457  0.69660812  0.13131808     0.98390
N1473       N  0.35628593  0.66891413  0.13355979    -0.06910
N1474       N  0.36848986  0.68624688  0.12487966    -0.62290
N1475       N  0.34168514  0.64188974  0.18228734    -0.06230
N1476       N  0.34258951  0.64100511  0.20474902    -0.59010
N1477       N  0.35890781  0.63070078  0.17267391    -0.07540
N1478       N  0.37211681  0.62195466  0.18935410    -0.61850
N1479       N  0.33887691  0.67765730  0.14511501    -0.06530
N1480       N  0.33867637  0.70009371  0.14450905    -0.59040
Mn1481     Mn  0.35999468  0.62935722  0.13294655     1.20190
Mn1482     Mn  0.31418298  0.65887373  0.16449926     1.10090
Cl1483     Cl  0.31602602  0.62772411  0.13421089    -0.87010
C1484       C  0.35697404  0.70565070  0.13195139     0.95320
C1485       C  0.36147933  0.62875648  0.20927737     0.95120
N1486       N  0.47060783  0.13329769  0.09786704    -0.07160
N1487       N  0.48744245  0.12614451  0.08474836    -0.59280
N1488       N  0.45358071  0.18115827  0.12394104    -0.06840
N1489       N  0.45898700  0.20318565  0.12443991    -0.61410
N1490       N  0.46795700  0.16919677  0.13638411    -0.06440
N1491       N  0.48298689  0.18254724  0.14612990    -0.59260
N1492       N  0.45549010  0.14485332  0.08586624    -0.06120
N1493       N  0.46191422  0.14619978  0.06415583    -0.61760
C1494       C  0.48189118  0.13426859  0.06382042     0.95010
C1495       C  0.47741360  0.20374005  0.13862627     0.94790
N1496       N  0.38430797  0.17001963  0.13332965    -0.07350
N1497       N  0.37105323  0.18658326  0.14219541    -0.59860
N1498       N  0.40232822  0.14472745  0.08506684    -0.05470
N1499       N  0.40047242  0.14673141  0.06275351    -0.61110
N1500       N  0.38529306  0.13287883  0.09402637    -0.07380
N1501       N  0.37146390  0.12643228  0.07696424    -0.60130
N1502       N  0.40111141  0.17979679  0.12181864    -0.05110
N1503       N  0.39974270  0.20219780  0.12228572    -0.61200
Mn1504     Mn  0.42801745  0.16275261  0.10386513     1.18440
C1505       C  0.38112474  0.20650472  0.13480441     0.97100
C1506       C  0.38123378  0.13563245  0.05758293     0.97760
N1507       N  0.46908026  0.13141825  0.17208218    -0.07400
N1508       N  0.48481654  0.13916270  0.18610893    -0.63710
N1509       N  0.45653765  0.08270741  0.14501252    -0.06200
N1510       N  0.46350543  0.06106846  0.14538836    -0.64380
N1511       N  0.47112716  0.09539487  0.13377580    -0.06900
N1512       N  0.48803132  0.08286320  0.12583692    -0.63970
N1513       N  0.45432696  0.11874277  0.18312503    -0.05800
N1514       N  0.45983748  0.11722052  0.20504849    -0.64660
Mn1515     Mn  0.46985539  0.13236417  0.13499478     1.10660
C1516       C  0.47881736  0.13030651  0.20660736     0.98320
C1517       C  0.48329980  0.06151975  0.13321344     0.98390
N1518       N  0.38568819  0.09038748  0.13463756    -0.06910
N1519       N  0.37160019  0.07306308  0.12939592    -0.62290
N1520       N  0.40194627  0.11637556  0.18214417    -0.06230
N1521       N  0.40079705  0.11571618  0.20456486    -0.59010
N1522       N  0.38490651  0.12828663  0.17307842    -0.07540
N1523       N  0.37177742  0.13633269  0.19007980    -0.61850
N1524       N  0.40382294  0.08155820  0.14496193    -0.06530
N1525       N  0.40270991  0.05926975  0.14670355    -0.59040
Mn1526     Mn  0.38310200  0.13033132  0.13368559     1.20190
Mn1527     Mn  0.42901288  0.09969284  0.16380357     1.10090
Cl1528     Cl  0.42678220  0.13117300  0.13390176    -0.87010
C1529       C  0.38274418  0.05366421  0.13734643     0.95320
C1530       C  0.38206458  0.12793109  0.20955147     0.95120
N1531       N  0.33414809  0.14262970  0.38084481    -0.07160
N1532       N  0.31720313  0.12977972  0.38929653    -0.59280
N1533       N  0.36261767  0.15938339  0.33378042    -0.06840
N1534       N  0.36344876  0.15830757  0.31139992    -0.61410
N1535       N  0.37396852  0.14240739  0.34363818    -0.06440
N1536       N  0.38278605  0.12905834  0.32714123    -0.59260
N1537       N  0.32493684  0.15914851  0.36830005    -0.06120
N1538       N  0.30253444  0.15786068  0.36756616    -0.61760
C1539       C  0.29763175  0.13960211  0.38044863     0.95010
C1540       C  0.37589982  0.13957074  0.30715268     0.94790
N1541       N  0.37352359  0.22739774  0.34443825    -0.07350
N1542       N  0.38171860  0.24323769  0.33072828    -0.59860
N1543       N  0.32388556  0.21208035  0.36830707    -0.05470
N1544       N  0.30192286  0.21762956  0.36692897    -0.61110
N1545       N  0.33502844  0.22749779  0.38009606    -0.07380
N1546       N  0.32113657  0.24363499  0.38737029    -0.60130
N1547       N  0.36269905  0.21170671  0.33269500    -0.05110
N1548       N  0.36317208  0.21654855  0.31057140    -0.61200
Mn1549     Mn  0.34332495  0.18537424  0.35060738     1.18440
C1550       C  0.37550793  0.23607725  0.30963536     0.97100
C1551       C  0.30053357  0.23725568  0.37928223     0.97760
N1552       N  0.41337260  0.14412260  0.38579496    -0.07400
N1553       N  0.43121722  0.13178114  0.37806202    -0.63710
N1554       N  0.38390496  0.16131862  0.43226373    -0.06200
N1555       N  0.38345162  0.16047847  0.45469072    -0.64380
N1556       N  0.37355048  0.14361686  0.42286436    -0.06900
N1557       N  0.36570248  0.13013827  0.43968381    -0.63970
N1558       N  0.42142706  0.16157273  0.39762064    -0.05800
N1559       N  0.44380229  0.16156810  0.39828203    -0.64660
Mn1560     Mn  0.37381243  0.14129673  0.38330321     1.10660
C1561       C  0.45013257  0.14336004  0.38596809     0.98320
C1562       C  0.37212664  0.14124972  0.45940275     0.98390
N1563       N  0.36997264  0.22866865  0.41852117    -0.06910
N1564       N  0.36089650  0.24491076  0.43114639    -0.62290
N1565       N  0.42028742  0.21431174  0.39596363    -0.06230
N1566       N  0.44185281  0.22076510  0.39795429    -0.59010
N1567       N  0.40879901  0.22891710  0.38325937    -0.07540
N1568       N  0.42213260  0.24545197  0.37603862    -0.61850
N1569       N  0.38147492  0.21411581  0.43125270    -0.06530
N1570       N  0.38089043  0.22047047  0.45301113    -0.59040
Mn1571     Mn  0.37185615  0.22843165  0.38151681     1.20190
Mn1572     Mn  0.40191054  0.18759757  0.41448670     1.10090
Cl1573     Cl  0.37273778  0.18536415  0.38249025    -0.87010
C1574       C  0.36768618  0.23967199  0.45265006     0.95320
C1575       C  0.44265972  0.24018469  0.38525275     0.95120
N1576       N  0.58854443  0.77567715  0.62997308    -0.07160
N1577       N  0.57536350  0.75885436  0.63674079    -0.59280
N1578       N  0.61424891  0.79244059  0.58186679    -0.06840
N1579       N  0.61507952  0.78805516  0.55963478    -0.61410
N1580       N  0.62594218  0.77695586  0.59329757    -0.06440
N1581       N  0.63509932  0.76182040  0.57927336    -0.59260
N1582       N  0.57666024  0.79106890  0.61859157    -0.06120
N1583       N  0.55500882  0.78485267  0.61701564    -0.61760
C1584       C  0.55456522  0.76471188  0.62854031     0.95010
C1585       C  0.62854750  0.76904334  0.55826235     0.94790
N1586       N  0.62331578  0.86224638  0.59304939    -0.07350
N1587       N  0.63190455  0.87544166  0.57636592    -0.59860
N1588       N  0.57539997  0.84428729  0.61901214    -0.05470
N1589       N  0.55295008  0.84561877  0.61855488    -0.61110
N1590       N  0.58451210  0.86111153  0.63103192    -0.07380
N1591       N  0.56757989  0.87421435  0.63931973    -0.60130
N1592       N  0.61203570  0.84523368  0.58345123    -0.05110
N1593       N  0.61252477  0.84628171  0.56107247    -0.61200
Mn1594     Mn  0.59433163  0.81846934  0.60058741     1.18440
C1595       C  0.62495239  0.86483513  0.55653803     0.97100
C1596       C  0.54804440  0.86423741  0.63102917     0.97760
N1597       N  0.66256227  0.77748096  0.63081421    -0.07400
N1598       N  0.67703796  0.76263344  0.62194235    -0.63710
N1599       N  0.63562720  0.79113858  0.67971983    -0.06200
N1600       N  0.63368002  0.78697980  0.70186271    -0.64380
N1601       N  0.62499492  0.77547416  0.66776585    -0.06900
N1602       N  0.61545173  0.76029350  0.68142293    -0.63970
N1603       N  0.67341178  0.79276136  0.64306495    -0.05800
N1604       N  0.69561496  0.78852127  0.64311889    -0.64660
Mn1605     Mn  0.62557325  0.77587740  0.63050238     1.10660
C1606       C  0.69757087  0.76982726  0.62961103     0.98320
C1607       C  0.62074427  0.76781979  0.70266496     0.98390
N1608       N  0.62455374  0.86105785  0.67236025    -0.06910
N1609       N  0.61676464  0.87426695  0.68948120    -0.62290
N1610       N  0.67283656  0.84498191  0.64567861    -0.06230
N1611       N  0.69521324  0.84631470  0.64644380    -0.59010
N1612       N  0.66358133  0.86220647  0.63425024    -0.07540
N1613       N  0.68047982  0.87577476  0.62684750    -0.61850
N1614       N  0.63599105  0.84371165  0.68140647    -0.06530
N1615       N  0.63641059  0.84464443  0.70385660    -0.59040
Mn1616     Mn  0.62393851  0.86344155  0.63265546     1.20190
Mn1617     Mn  0.65457641  0.81822705  0.66264996     1.10090
Cl1618     Cl  0.62454408  0.81929690  0.63160650    -0.87010
C1619       C  0.62470401  0.86368087  0.70908618     0.95320
C1620       C  0.70021816  0.86540697  0.63479662     0.95120
N1621       N  0.22304047  0.34361599  0.38041006    -0.07160
N1622       N  0.23972060  0.33022733  0.38765120    -0.59280
N1623       N  0.20726778  0.36997373  0.33247715    -0.06840
N1624       N  0.21343313  0.37004737  0.31064973    -0.61410
N1625       N  0.22135793  0.38239819  0.34463127    -0.06440
N1626       N  0.23700822  0.39167623  0.33152105    -0.59260
N1627       N  0.20810194  0.33181998  0.36862277    -0.06120
N1628       N  0.21437528  0.31007583  0.36728544    -0.61760
C1629       C  0.23408813  0.30939308  0.37941583     0.95010
C1630       C  0.23205292  0.38380502  0.31040682     0.94790
N1631       N  0.13718786  0.37813405  0.34111320    -0.07350
N1632       N  0.12400642  0.38587420  0.32389753    -0.59860
N1633       N  0.15525464  0.33018807  0.36720200    -0.05470
N1634       N  0.15411573  0.30774653  0.36605743    -0.61110
N1635       N  0.13792662  0.33903862  0.37879215    -0.07380
N1636       N  0.12465302  0.32193819  0.38607493    -0.60130
N1637       N  0.15499370  0.36743934  0.33212895    -0.05110
N1638       N  0.15462367  0.36768459  0.30974640    -0.61200
Mn1639     Mn  0.18124062  0.34963567  0.35001298     1.18440
C1640       C  0.13552454  0.37912318  0.30439222     0.97100
C1641       C  0.13501472  0.30254219  0.37756679     0.97760
N1642       N  0.22048123  0.41809013  0.38281085    -0.07400
N1643       N  0.23640043  0.43229682  0.37582424    -0.63710
N1644       N  0.20615694  0.39086056  0.43066105    -0.06200
N1645       N  0.21261354  0.39193125  0.45237210    -0.64380
N1646       N  0.22134607  0.37952023  0.41856223    -0.06900
N1647       N  0.23811343  0.37216708  0.43161279    -0.63970
N1648       N  0.20475227  0.42903841  0.39457297    -0.05800
N1649       N  0.20971081  0.45107622  0.39605026    -0.64660
Mn1650     Mn  0.22188396  0.38088494  0.38159606     1.10660
C1651       C  0.22934058  0.45286006  0.38385321     0.98320
C1652       C  0.23264518  0.38006520  0.45259472     0.98390
N1653       N  0.13662498  0.37843386  0.42057168    -0.06910
N1654       N  0.12386653  0.36907588  0.43717075    -0.62290
N1655       N  0.15221046  0.42727386  0.39505747    -0.06230
N1656       N  0.15091697  0.44969260  0.39496961    -0.59010
N1657       N  0.13583827  0.41785687  0.38271296    -0.07540
N1658       N  0.12293437  0.43461978  0.37370112    -0.61850
N1659       N  0.15329643  0.39010462  0.43031061    -0.06530
N1660       N  0.15238797  0.38915920  0.45273796    -0.59040
Mn1661     Mn  0.13504108  0.37838456  0.38081639     1.20190
Mn1662     Mn  0.17883503  0.40947902  0.41288430     1.10090
Cl1663     Cl  0.17896070  0.37955246  0.38136808    -0.87010
C1664       C  0.13420248  0.37612777  0.45711418     0.95320
C1665       C  0.13278640  0.45432442  0.38180704     0.95120
N1666       N  0.58371798  0.62430915  0.86370726    -0.07160
N1667       N  0.56634111  0.63141689  0.87689065    -0.59280
N1668       N  0.61312290  0.57738556  0.84694008    -0.06840
N1669       N  0.61441102  0.55492998  0.84785772    -0.61410
N1670       N  0.62332752  0.58706018  0.86461166    -0.06440
N1671       N  0.63177736  0.57056234  0.87818475    -0.59260
N1672       N  0.57522817  0.61260879  0.84637880    -0.06120
N1673       N  0.55281253  0.61143456  0.84733043    -0.61760
C1674       C  0.54710277  0.62291546  0.86635396     0.95010
C1675       C  0.62593862  0.55062744  0.86723951     0.94790
N1676       N  0.62675571  0.59069709  0.77921205    -0.07350
N1677       N  0.63554449  0.57754400  0.76321243    -0.59860
N1678       N  0.57699115  0.61463433  0.79366065    -0.05470
N1679       N  0.55501824  0.61416375  0.78846867    -0.61110
N1680       N  0.58833059  0.62679740  0.77856674    -0.07380
N1681       N  0.57440921  0.63498807  0.76275129    -0.60130
N1682       N  0.61532867  0.57845779  0.79412501    -0.05110
N1683       N  0.61572073  0.55656583  0.78834105    -0.61200
Mn1684     Mn  0.59501121  0.59554703  0.82036510     1.18440
C1685       C  0.62872502  0.55627708  0.76913291     0.97100
C1686       C  0.55368672  0.62734153  0.76943844     0.97760
N1687       N  0.66252114  0.62804656  0.86578271    -0.07400
N1688       N  0.67885842  0.61923174  0.87927443    -0.63710
N1689       N  0.63543823  0.67580540  0.84844796    -0.06200
N1690       N  0.63511613  0.69824350  0.84993034    -0.64380
N1691       N  0.62320938  0.66611021  0.86481216    -0.06900
N1692       N  0.61402724  0.68267949  0.87780419    -0.63970
N1693       N  0.67238742  0.63995948  0.84928804    -0.05800
N1694       N  0.69477375  0.63993320  0.85124994    -0.64660
Mn1695     Mn  0.62307713  0.62648535  0.86649382     1.10660
C1696       C  0.69884473  0.62722734  0.86993573     0.98320
C1697       C  0.62183788  0.70265571  0.86810386     0.98390
N1698       N  0.62480008  0.66500027  0.77980748    -0.06910
N1699       N  0.61591345  0.67925219  0.76465652    -0.62290
N1700       N  0.67377865  0.63922493  0.79612894    -0.06230
N1701       N  0.69608181  0.63774128  0.79243301    -0.59010
N1702       N  0.66256360  0.62820031  0.78017651    -0.07540
N1703       N  0.67675923  0.61877678  0.76541599    -0.61850
N1704       N  0.63580924  0.67625904  0.79575482    -0.06530
N1705       N  0.63470471  0.69852053  0.79187329    -0.59040
Mn1706     Mn  0.62553631  0.62778019  0.77898822     1.20190
Mn1707     Mn  0.65465020  0.65801413  0.82250386     1.10090
Cl1708     Cl  0.62448618  0.62703728  0.82263290    -0.87010
C1709       C  0.62215050  0.70013755  0.77244312     0.95320
C1710       C  0.69765487  0.62474125  0.77321499     0.95120
N1711       N  0.33544837  0.38383406  0.53282774    -0.07160
N1712       N  0.32204535  0.37609761  0.51664126    -0.59280
N1713       N  0.36171339  0.43156982  0.55019043    -0.06840
N1714       N  0.36342937  0.45392887  0.54675609    -0.61410
N1715       N  0.37302577  0.42031807  0.53437993    -0.06440
N1716       N  0.38278525  0.43454994  0.51991787    -0.59260
N1717       N  0.32365720  0.39506119  0.54829161    -0.06120
N1718       N  0.30168331  0.39559391  0.54272013    -0.59840
C1719       C  0.30102969  0.38339474  0.52295342     0.95010
C1720       C  0.37701135  0.45550687  0.52791444     0.94790
N1721       N  0.37174680  0.41815132  0.61948234    -0.07350
N1722       N  0.37921671  0.43418831  0.63401132    -0.59860
N1723       N  0.32376107  0.39327488  0.60123606    -0.05470
N1724       N  0.30135658  0.39393177  0.60263382    -0.61110
N1725       N  0.33301707  0.38044120  0.61750773    -0.07380
N1726       N  0.31612353  0.37172468  0.63025553    -0.60130
N1727       N  0.36018266  0.42847430  0.60293908    -0.05110
N1728       N  0.35923992  0.45071350  0.60572316    -0.61200
Mn1729     Mn  0.34211197  0.41229842  0.57582811     1.18440
C1730       C  0.37098076  0.45441034  0.62496111     0.97100
C1731       C  0.29648819  0.38059546  0.62060797     0.97760
N1732       N  0.40913907  0.38236087  0.53308740    -0.07400
N1733       N  0.42251978  0.39157898  0.51769270    -0.63710
N1734       N  0.38278081  0.33307657  0.54530857    -0.06200
N1735       N  0.38246097  0.31147117  0.53848764    -0.64380
N1736       N  0.37141638  0.34613307  0.53094266    -0.06900
N1737       N  0.36274303  0.33386258  0.51429887    -0.63970
N1738       N  0.42084530  0.36899436  0.54686828    -0.05800
N1739       N  0.44267730  0.36842388  0.54066905    -0.64660
Mn1740     Mn  0.37227287  0.38318995  0.53249368     1.10660
C1741       C  0.44334058  0.38273233  0.52227635     0.98320
C1742       C  0.36979067  0.31233962  0.51903130     0.98390
N1743       N  0.37326849  0.33899778  0.61609262    -0.06910
N1744       N  0.36590691  0.32190844  0.62947426    -0.62290
N1745       N  0.42087629  0.36537149  0.59948406    -0.06230
N1746       N  0.44323199  0.36445374  0.60007842    -0.59010
N1747       N  0.41227395  0.37642445  0.61725324    -0.07540
N1748       N  0.42971829  0.38322677  0.63051506    -0.61850
N1749       N  0.38393637  0.33001929  0.59824066    -0.06530
N1750       N  0.38404963  0.30751874  0.59889395    -0.59040
Mn1751     Mn  0.37262657  0.37848059  0.61939025     1.20190
Mn1752     Mn  0.40225211  0.34909188  0.57265740     1.10090
Cl1753     Cl  0.37231827  0.38075621  0.57541983    -0.87010
C1754       C  0.37288637  0.30240844  0.61823535     0.95320
C1755       C  0.44903237  0.37551416  0.61922820     0.95120
N1756       N  0.38682941  0.66829796  0.63205805    -0.07160
N1757       N  0.37445261  0.68531808  0.64131303    -0.59280
N1758       N  0.40183562  0.64086099  0.58389146    -0.06840
N1759       N  0.40019616  0.64055389  0.56150120    -0.61410
N1760       N  0.38516629  0.62937480  0.59390782    -0.06440
N1761       N  0.37162924  0.62083625  0.57749638    -0.59260
N1762       N  0.40339913  0.67743103  0.61966681    -0.06120
N1763       N  0.40269222  0.69990447  0.62002403    -0.61760
C1764       C  0.38479148  0.70490095  0.63343285     0.95010
C1765       C  0.38148277  0.62825982  0.55740614     0.94790
N1766       N  0.46948976  0.62673862  0.59298285    -0.07350
N1767       N  0.48453309  0.61757181  0.57902086    -0.59860
N1768       N  0.45643589  0.67668341  0.61802705    -0.05470
N1769       N  0.46253907  0.69844838  0.61670803    -0.61110
N1770       N  0.47189773  0.66472477  0.62918936    -0.07380
N1771       N  0.48862348  0.67789560  0.63607229    -0.60130
N1772       N  0.45431696  0.63883096  0.58157941    -0.05110
N1773       N  0.45903786  0.63854648  0.55938196    -0.61200
Mn1774     Mn  0.42883420  0.65877974  0.60057123     1.18440
C1775       C  0.47784566  0.62486483  0.55809987     0.97100
C1776       C  0.48258683  0.69888249  0.62837779     0.97760
N1777       N  0.38704261  0.58898457  0.63558156    -0.07400
N1778       N  0.37395391  0.57145175  0.62875125    -0.63710
N1779       N  0.40636395  0.61732375  0.68174828    -0.06200
N1780       N  0.40624508  0.61679009  0.70414333    -0.64380
N1781       N  0.38822931  0.62798793  0.67340108    -0.06900
N1782       N  0.37524566  0.63488679  0.69110779    -0.63970
N1783       N  0.40493711  0.58043976  0.64649408    -0.05800
N1784       N  0.40462014  0.55808387  0.64733145    -0.64660
Mn1785     Mn  0.38478649  0.62865841  0.63373797     1.10660
C1786       C  0.38553677  0.55219757  0.63633440     0.98320
C1787       C  0.38700375  0.62751063  0.71031113     0.98390
N1788       N  0.47395519  0.62855319  0.66712906    -0.06910
N1789       N  0.49050834  0.63640608  0.68023640    -0.62290
N1790       N  0.45706800  0.57960636  0.64339828    -0.06230
N1791       N  0.46260047  0.55762965  0.64457342    -0.59010
N1792       N  0.47174622  0.59071275  0.63068123    -0.07540
N1793       N  0.48748519  0.57672587  0.62260536    -0.61850
N1794       N  0.45868512  0.61778710  0.67945998    -0.06530
N1795       N  0.46441038  0.61789157  0.70131478    -0.59040
Mn1796     Mn  0.47205519  0.62772620  0.62992658     1.20190
Mn1797     Mn  0.43159719  0.59880944  0.66284690     1.10090
Cl1798     Cl  0.42866281  0.62860687  0.63176571    -0.87010
C1799       C  0.48398804  0.63007073  0.70154316     0.95320
C1800       C  0.48155262  0.55616275  0.63129585     0.95120
N1801       N  0.65705073  0.47785307  0.62578169    -0.07160
N1802       N  0.66985788  0.49492799  0.63259923    -0.59280
N1803       N  0.63227596  0.45804872  0.57866871    -0.06840
N1804       N  0.63236746  0.46126807  0.55626880    -0.61410
N1805       N  0.61992721  0.47386877  0.58884288    -0.06440
N1806       N  0.61126027  0.48825532  0.57367783    -0.59260
N1807       N  0.66950095  0.46212220  0.61562585    -0.06120
N1808       N  0.69124877  0.46833589  0.61495623    -0.61760
C1809       C  0.69116595  0.48881170  0.62591919     0.95010
C1810       C  0.61903485  0.48010860  0.55339906     0.94790
N1811       N  0.62370124  0.38930943  0.59322085    -0.07350
N1812       N  0.61535882  0.37519501  0.57726194    -0.59860
N1813       N  0.67114496  0.40906438  0.61865005    -0.05470
N1814       N  0.69355754  0.40791872  0.61821541    -0.61110
N1815       N  0.66215351  0.39259366  0.63125828    -0.07380
N1816       N  0.67916811  0.37995891  0.64006844    -0.60130
N1817       N  0.63527470  0.40567333  0.58280852    -0.05110
N1818       N  0.63544854  0.40312834  0.56051893    -0.61200
Mn1819     Mn  0.65230294  0.43360379  0.59885808     1.18440
C1820       C  0.62326449  0.38420851  0.55700735     0.97100
C1821       C  0.69862218  0.38989463  0.63149212     0.97760
N1822       N  0.58289098  0.47513518  0.62679461    -0.07400
N1823       N  0.56851795  0.49051021  0.61861938    -0.63710
N1824       N  0.61008739  0.46422965  0.67620347    -0.06200
N1825       N  0.61085815  0.47070953  0.69787870    -0.64380
N1826       N  0.62063943  0.47903159  0.66307804    -0.06900
N1827       N  0.62915661  0.49575362  0.67537380    -0.63970
N1828       N  0.57216691  0.46052590  0.64003064    -0.05800
N1829       N  0.55015137  0.46573399  0.64125881    -0.64660
Mn1830     Mn  0.61999143  0.47682331  0.62602464     1.10660
C1831       C  0.54809778  0.48429154  0.62745743     0.98320
C1832       C  0.62291070  0.49041926  0.69697090     0.98390
N1833       N  0.62219625  0.39395565  0.67206911    -0.06910
N1834       N  0.63026164  0.38133082  0.68947261    -0.62290
N1835       N  0.57376080  0.40813275  0.64528427    -0.06230
N1836       N  0.55143220  0.40625496  0.64634321    -0.59010
N1837       N  0.58335355  0.39077221  0.63435619    -0.07540
N1838       N  0.56680673  0.37661962  0.62744672    -0.61850
N1839       N  0.61070710  0.41151834  0.68059234    -0.06530
N1840       N  0.61054041  0.41125741  0.70308600    -0.59040
Mn1841     Mn  0.62284165  0.38984374  0.63275046     1.20190
Mn1842     Mn  0.59156537  0.43603375  0.66075607     1.10090
Cl1843     Cl  0.62166051  0.43350700  0.62958928    -0.87010
C1844       C  0.62270611  0.39254811  0.70878581     0.95320
C1845       C  0.54697235  0.38671612  0.63531480     0.95120
N1846       N  0.33312643  0.61465260  0.38425518    -0.07160
N1847       N  0.31651722  0.62792099  0.37547274    -0.59280
N1848       N  0.35943512  0.59848887  0.43271134    -0.06840
N1849       N  0.35946944  0.59982117  0.45513210    -0.61410
N1850       N  0.37147271  0.61499300  0.42311625    -0.06440
N1851       N  0.38021017  0.62804801  0.43979659    -0.59260
N1852       N  0.32349517  0.59813748  0.39630523    -0.06120
N1853       N  0.30108576  0.59978761  0.39634751    -0.61760
C1854       C  0.29666044  0.61830876  0.38356183     0.95010
C1855       C  0.37227632  0.61812427  0.45964287     0.94790
N1856       N  0.37162908  0.52981247  0.42340471    -0.07350
N1857       N  0.38090318  0.51535651  0.43816785    -0.59860
N1858       N  0.32308130  0.54516255  0.39697419    -0.05470
N1859       N  0.30116836  0.53971299  0.39812607    -0.61110
N1860       N  0.33463502  0.52936321  0.38586374    -0.07380
N1861       N  0.32097429  0.51296465  0.37893457    -0.60130
N1862       N  0.36028329  0.54596224  0.43422488    -0.05110
N1863       N  0.36146316  0.54287151  0.45662264    -0.61200
Mn1864     Mn  0.34139379  0.57211651  0.41512663     1.18440
C1865       C  0.37448155  0.52373535  0.45887062     0.97100
C1866       C  0.30018546  0.51963541  0.38657892     0.97760
N1867       N  0.41235210  0.61358540  0.38258317    -0.07400
N1868       N  0.42909329  0.62710083  0.39027710    -0.63710
N1869       N  0.38576781  0.59606474  0.33488882    -0.06200
N1870       N  0.38604669  0.59701666  0.31237123    -0.64380
N1871       N  0.37411158  0.61330026  0.34390710    -0.06900
N1872       N  0.36599692  0.62639533  0.32685100    -0.63970
N1873       N  0.42176857  0.59622460  0.37145191    -0.05800
N1874       N  0.44418255  0.59755099  0.37096007    -0.64660
Mn1875     Mn  0.37277089  0.61584493  0.38345306     1.10660
C1876       C  0.44880506  0.61672682  0.38253094     0.98320
C1877       C  0.37385994  0.61585930  0.30730111     0.98390
N1878       N  0.37188266  0.52846236  0.34860886    -0.06910
N1879       N  0.36305558  0.51296889  0.33493909    -0.62290
N1880       N  0.42106059  0.54285337  0.37413614    -0.06230
N1881       N  0.44305845  0.53716931  0.37508598    -0.59010
N1882       N  0.40887869  0.52813049  0.38587157    -0.07540
N1883       N  0.42209455  0.51237450  0.39512985    -0.61850
N1884       N  0.38364688  0.54346779  0.33678339    -0.06530
N1885       N  0.38319415  0.53848391  0.31472024    -0.59040
Mn1886     Mn  0.37177693  0.52845631  0.38590556     1.20190
Mn1887     Mn  0.40333898  0.56974145  0.35415444     1.10090
Cl1888     Cl  0.37236065  0.57182584  0.38466138    -0.87010
C1889       C  0.36995371  0.51958754  0.31383348     0.95320
C1890       C  0.44342112  0.51808383  0.38852519     0.95120
N1891       N  0.58380206  0.12858981  0.89815102    -0.07160
N1892       N  0.56709845  0.12023873  0.88488383    -0.59280
N1893       N  0.60995808  0.17668300  0.91409613    -0.06840
N1894       N  0.60941936  0.19905902  0.91217484    -0.61410
N1895       N  0.62220606  0.16691889  0.89771218    -0.06440
N1896       N  0.63057701  0.18346778  0.88423438    -0.59260
N1897       N  0.57418921  0.14072744  0.91472211    -0.06120
N1898       N  0.55181904  0.14124168  0.91310645    -0.61760
C1899       C  0.54730019  0.12865688  0.89461629     0.95010
C1900       C  0.62207939  0.20336647  0.89366361     0.94790
N1901       N  0.62153711  0.16798067  0.98278819    -0.07350
N1902       N  0.62976749  0.18264365  0.99779932    -0.59860
N1903       N  0.57297774  0.14169454  0.96769780    -0.05470
N1904       N  0.55100732  0.14282837  0.97312664    -0.61110
N1905       N  0.58451512  0.13080639  0.98364671    -0.07380
N1906       N  0.57083388  0.12398061  0.00010732    -0.60130
N1907       N  0.61004468  0.17876083  0.96672601    -0.05110
N1908       N  0.60995037  0.20106807  0.97047116    -0.61200
Mn1909     Mn  0.59161689  0.15953775  0.94066719     1.18440
C1910       C  0.62274674  0.20323914  0.98966789     0.97100
C1911       C  0.54995542  0.13134110  0.99329852     0.97760
N1912       N  0.66345027  0.12585004  0.89984801    -0.07400
N1913       N  0.68117512  0.13327733  0.88724318    -0.63710
N1914       N  0.63561343  0.07878822  0.91781959    -0.06200
N1915       N  0.63642555  0.05632714  0.91727559    -0.64380
N1916       N  0.62490067  0.08750668  0.89986347    -0.06900
N1917       N  0.61798843  0.07014377  0.88658810    -0.63970
N1918       N  0.67177380  0.11470458  0.91771631    -0.05800
N1919       N  0.69417109  0.11425117  0.91778393    -0.64660
Mn1920     Mn  0.62363946  0.12720456  0.89695254     1.10660
C1921       C  0.70031445  0.12596900  0.89914563     0.98320
C1922       C  0.62554212  0.05083206  0.89794759     0.98390
N1923       N  0.62139697  0.09337864  0.98546168    -0.06910
N1924       N  0.61316588  0.08019830  0.00175972    -0.62290
N1925       N  0.67016839  0.11761901  0.96999516    -0.06230
N1926       N  0.69187164  0.11624444  0.97614732    -0.59010
N1927       N  0.65857391  0.13029612  0.98448543    -0.07540
N1928       N  0.67204836  0.13811345  0.00066753    -0.61850
N1929       N  0.63268044  0.08109486  0.97038070    -0.06530
N1930       N  0.63252523  0.05919088  0.97609901    -0.59040
Mn1931     Mn  0.62156137  0.13066777  0.98446135     1.20190
Mn1932     Mn  0.65256688  0.09792802  0.94387294     1.10090
Cl1933     Cl  0.62231248  0.12882733  0.94086150    -0.87010
C1934       C  0.61990455  0.05889599  0.99552008     0.95320
C1935       C  0.69274556  0.12926182  0.99526269     0.95120
N1936       N  0.16027490  0.97991599  0.63096777    -0.07160
N1937       N  0.17299670  0.99660252  0.63876674    -0.59280
N1938       N  0.13676362  0.96293483  0.58201891    -0.06840
N1939       N  0.13725886  0.96676577  0.55973577    -0.61410
N1940       N  0.12440606  0.97858936  0.59248839    -0.06440
N1941       N  0.11615651  0.99348648  0.57753366    -0.59260
N1942       N  0.17284847  0.96474717  0.62009667    -0.06120
N1943       N  0.19455643  0.97116311  0.61982347    -0.61760
C1944       C  0.19436867  0.99106768  0.63182635     0.95010
C1945       C  0.12424039  0.98582210  0.55713894     0.94790
N1946       N  0.12688662  0.89357909  0.59227804    -0.07350
N1947       N  0.11851005  0.88054666  0.57541087    -0.59860
N1948       N  0.17417220  0.91140984  0.62042348    -0.05470
N1949       N  0.19662393  0.91029014  0.62122373    -0.61110
N1950       N  0.16455833  0.89428280  0.63160936    -0.07380
N1951       N  0.18113111  0.88106074  0.64049939    -0.60130
N1952       N  0.13881599  0.91036437  0.58301118    -0.05110
N1953       N  0.13893044  0.90926173  0.56055677    -0.61200
Mn1954     Mn  0.15592462  0.93722251  0.60131530     1.18440
C1955       C  0.12637118  0.89081490  0.55573637     0.97100
C1956       C  0.20101286  0.89145276  0.63361803     0.97760
N1957       N  0.08592620  0.97888616  0.62955816    -0.07400
N1958       N  0.07173748  0.99395407  0.62042956    -0.63710
N1959       N  0.11157314  0.96458698  0.67905737    -0.06200
N1960       N  0.11218543  0.96911034  0.70120022    -0.64380
N1961       N  0.12263683  0.98024190  0.66741407    -0.06900
N1962       N  0.13131655  0.99570072  0.68132703    -0.63970
N1963       N  0.07463810  0.96357153  0.64143659    -0.05800
N1964       N  0.05240652  0.96794679  0.64070258    -0.64660
Mn1965     Mn  0.12320009  0.97984415  0.63001914     1.10660
C1966       C  0.05079088  0.98691974  0.62733971     0.98320
C1967       C  0.12494477  0.98835051  0.70235625     0.98390
N1968       N  0.12360666  0.89465353  0.67111759    -0.06910
N1969       N  0.13243104  0.88174078  0.68791186    -0.62290
N1970       N  0.07568421  0.91082417  0.64367259    -0.06230
N1971       N  0.05328951  0.90969831  0.64347895    -0.59010
N1972       N  0.08530122  0.89369138  0.63237648    -0.07540
N1973       N  0.06863212  0.88035942  0.62409897    -0.61850
N1974       N  0.11157232  0.91149815  0.68037898    -0.06530
N1975       N  0.11154889  0.91030374  0.70287732    -0.59040
Mn1976     Mn  0.12502770  0.89226814  0.63177901     1.20190
Mn1977     Mn  0.09322098  0.93752578  0.66135996     1.10090
Cl1978     Cl  0.12430437  0.93619285  0.63107349    -0.87010
C1979       C  0.12449617  0.89185734  0.70760929     0.95320
C1980       C  0.04876490  0.89090399  0.63131426     0.95120
N1981       N  0.11947065  0.66237344  0.98556517    -0.07160
N1982       N  0.12766921  0.67589018  0.00158812    -0.59280
N1983       N  0.07185233  0.63705847  0.96761966    -0.06840
N1984       N  0.04963886  0.63683284  0.97169985    -0.61410
N1985       N  0.08283952  0.62476297  0.98289863    -0.06440
N1986       N  0.06847971  0.61559429  0.99762471    -0.59260
N1987       N  0.10883128  0.67435282  0.96981051    -0.06120
N1988       N  0.10936562  0.69640618  0.97468250    -0.61760
C1989       C  0.12165205  0.69706915  0.99427730     0.95010
C1990       C  0.04780417  0.62287509  0.99013725     0.94790
N1991       N  0.08233891  0.63035804  0.89740768    -0.07350
N1992       N  0.06527600  0.62516747  0.88289770    -0.59860
N1993       N  0.10885071  0.67666920  0.91743989    -0.05470
N1994       N  0.10797888  0.69907942  0.91747139    -0.61110
N1995       N  0.12059291  0.66859924  0.89986730    -0.07380
N1996       N  0.12800588  0.68651693  0.88749653    -0.60130
N1997       N  0.07317515  0.64052577  0.91541860    -0.05110
N1998       N  0.05093053  0.64236185  0.91382647    -0.61200
Mn1999     Mn  0.09066518  0.65718306  0.94249400     1.18440
C2000       C  0.04565762  0.63295011  0.89371568     0.97100
C2001       C  0.12004334  0.70552844  0.89918124     0.97760
N2002       N  0.12054382  0.58811157  0.98269602    -0.07400
N2003       N  0.11263126  0.57345661  0.99789025    -0.63710
N2004       N  0.16927420  0.61503951  0.96987807    -0.06200
N2005       N  0.19094728  0.61441775  0.97645289    -0.64380
N2006       N  0.15674027  0.62584287  0.98508816    -0.06900
N2007       N  0.16941263  0.63327211  0.00202658    -0.63970
N2008       N  0.13284045  0.57751546  0.96715325    -0.05800
N2009       N  0.13375759  0.55532345  0.97146250    -0.64660
Mn2010     Mn  0.11982324  0.62522243  0.98443429     1.10660
C2011       C  0.12063630  0.55303314  0.99041354     0.98320
C2012       C  0.19063799  0.62599784  0.99658450     0.98390
N2013       N  0.16199066  0.62737488  0.89932113    -0.06910
N2014       N  0.17903649  0.63472558  0.88591346    -0.62290
N2015       N  0.13543814  0.57953284  0.91466529    -0.06230
N2016       N  0.13747795  0.55729349  0.91251604    -0.59010
N2017       N  0.12450576  0.58895630  0.89716574    -0.07540
N2018       N  0.11898453  0.57218483  0.88250463    -0.61850
N2019       N  0.17105342  0.61562619  0.91651395    -0.06530
N2020       N  0.19347069  0.61446532  0.91514445    -0.59040
Mn2021     Mn  0.12233410  0.62884663  0.89648836     1.20190
Mn2022     Mn  0.15232267  0.59690624  0.94197233     1.10090
Cl2023     Cl  0.12135447  0.62699972  0.94063975    -0.87010
C2024       C  0.19854686  0.62627184  0.89619136     0.95320
C2025       C  0.12737029  0.55244268  0.89260819     0.95120
N2026       N  0.88967845  0.58930999  0.13672887    -0.07160
N2027       N  0.87626113  0.57237812  0.12929271    -0.59280
N2028       N  0.90676652  0.61768021  0.18350832    -0.06840
N2029       N  0.90613490  0.61874405  0.20592967    -0.61410
N2030       N  0.88958704  0.62896970  0.17396046    -0.06440
N2031       N  0.87656871  0.63788622  0.19067542    -0.59260
N2032       N  0.90671265  0.58013797  0.14853610    -0.06120
N2033       N  0.90522089  0.55773639  0.14974637    -0.61760
C2034       C  0.88634990  0.55276830  0.13781154     0.95010
C2035       C  0.88746351  0.63123949  0.21054344     0.94790
N2036       N  0.97491591  0.62929062  0.17289182    -0.07350
N2037       N  0.98958393  0.63810156  0.18761416    -0.59860
N2038       N  0.95975254  0.58007470  0.14765278    -0.05470
N2039       N  0.96364500  0.55777421  0.14699066    -0.61110
N2040       N  0.97578862  0.59115154  0.13654883    -0.07380
N2041       N  0.99087272  0.57673378  0.12784815    -0.60130
N2042       N  0.95876058  0.61824102  0.18380192    -0.05110
N2043       N  0.96187777  0.61925839  0.20611056    -0.61200
Mn2044     Mn  0.93291697  0.59880270  0.16592028     1.18440
C2045       C  0.98110822  0.63171205  0.20828562     0.97100
C2046       C  0.98306976  0.55598037  0.13445713     0.97760
N2047       N  0.88998153  0.66846719  0.13174063    -0.07400
N2048       N  0.87732523  0.68628069  0.13906876    -0.63710
N2049       N  0.90714534  0.63918609  0.08499004    -0.06200
N2050       N  0.90531276  0.63973369  0.06256871    -0.64380
N2051       N  0.88969571  0.62869637  0.09471173    -0.06900
N2052       N  0.87557211  0.62153926  0.07818121    -0.63970
N2053       N  0.90723493  0.67659136  0.11974036    -0.05800
N2054       N  0.90679541  0.69895548  0.11856817    -0.64660
Mn2055     Mn  0.88790467  0.62888527  0.13433814     1.10660
C2056       C  0.88849913  0.70531062  0.13068919     0.98320
C2057       C  0.88576385  0.62874584  0.05819599     0.98390
N2058       N  0.97611714  0.62719869  0.09793146    -0.06910
N2059       N  0.99174330  0.61860315  0.08399402    -0.62290
N2060       N  0.95928661  0.67615722  0.12168679    -0.06230
N2061       N  0.96235328  0.69849695  0.12187977    -0.59010
N2062       N  0.97491840  0.66574485  0.13410245    -0.07540
N2063       N  0.98897851  0.68078838  0.14325602    -0.61850
N2064       N  0.95989149  0.63748731  0.08617400    -0.06530
N2065       N  0.96403119  0.63630334  0.06402665    -0.59040
Mn2066     Mn  0.97616748  0.62842583  0.13543087     1.20190
Mn2067     Mn  0.93336861  0.65729516  0.10297204     1.10090
Cl2068     Cl  0.93208315  0.62826975  0.13461422    -0.87010
C2069       C  0.98368035  0.62410687  0.06293318     0.95320
C2070       C  0.98061639  0.70115305  0.13576339     0.95120
N2071       N  0.88766934  0.16851707  0.63184246    -0.07160
N2072       N  0.87461038  0.18514303  0.64083880    -0.59280
N2073       N  0.90549600  0.14215837  0.58400654    -0.06840
N2074       N  0.90420206  0.14380581  0.56170799    -0.61410
N2075       N  0.88796004  0.13101062  0.59278481    -0.06440
N2076       N  0.87413349  0.12495039  0.57549852    -0.59260
N2077       N  0.90461892  0.17810457  0.62037222    -0.06120
N2078       N  0.90355676  0.20056115  0.62114249    -0.61760
C2079       C  0.88497512  0.20500698  0.63380131     0.95010
C2080       C  0.88480977  0.13321467  0.55611031     0.94790
N2081       N  0.97297654  0.12931436  0.59663503    -0.07350
N2082       N  0.98836365  0.11947221  0.58360738    -0.59860
N2083       N  0.95728980  0.17844568  0.62165348    -0.05470
N2084       N  0.96206280  0.20057936  0.62241417    -0.61110
N2085       N  0.97226867  0.16665193  0.63351815    -0.07380
N2086       N  0.98745894  0.18026651  0.64278720    -0.60130
N2087       N  0.95823834  0.14093969  0.58428918    -0.05110
N2088       N  0.96362606  0.13956198  0.56224165    -0.61200
Mn2089     Mn  0.93129390  0.16010261  0.60231686     1.18440
C2090       C  0.98252551  0.12582797  0.56214004     0.97100
C2091       C  0.98093436  0.20146113  0.63593570     0.97760
N2092       N  0.88821619  0.08913589  0.63345488    -0.07400
N2093       N  0.87495646  0.07223633  0.62554412    -0.63710
N2094       N  0.90452461  0.11551614  0.68158774    -0.06200
N2095       N  0.90319356  0.11549528  0.70405980    -0.64380
N2096       N  0.88777961  0.12756221  0.67211263    -0.06900
N2097       N  0.87477143  0.13637398  0.68884811    -0.63970
N2098       N  0.90548436  0.07976028  0.64482829    -0.05800
N2099       N  0.90452438  0.05731385  0.64495495    -0.64660
Mn2100     Mn  0.88598853  0.12897444  0.63250559     1.10660
C2101       C  0.88562248  0.05252581  0.63308453     0.98320
C2102       C  0.88475282  0.12840135  0.70867676     0.98390
N2103       N  0.97168659  0.12982379  0.67029989    -0.06910
N2104       N  0.98719874  0.13860188  0.68383686    -0.62290
N2105       N  0.95854844  0.08011335  0.64423606    -0.06230
N2106       N  0.96361530  0.05801975  0.64240628    -0.59010
N2107       N  0.97372822  0.09243503  0.63334741    -0.07540
N2108       N  0.98931948  0.07924078  0.62377008    -0.61850
N2109       N  0.95730568  0.11717036  0.68189222    -0.06530
N2110       N  0.96310625  0.11657857  0.70380370    -0.59040
Mn2111     Mn  0.97289220  0.12960588  0.63349843     1.20190
Mn2112     Mn  0.93134296  0.09782412  0.66334963     1.10090
Cl2113     Cl  0.92968446  0.12903010  0.63285665    -0.87010
C2114       C  0.98181211  0.13018826  0.70461453     0.95320
C2115       C  0.98283635  0.05777273  0.62924509     0.95120
N2116       N  0.58568845  0.97884835  0.13644703    -0.07160
N2117       N  0.57263374  0.99506651  0.12796284    -0.59280
N2118       N  0.61011002  0.96205708  0.18520709    -0.06840
N2119       N  0.60986061  0.96603651  0.20746045    -0.61410
N2120       N  0.62191023  0.97780609  0.17445043    -0.06440
N2121       N  0.63010300  0.99285133  0.18906408    -0.59260
N2122       N  0.57342796  0.96371809  0.14754091    -0.06120
N2123       N  0.55150211  0.96976153  0.14729432    -0.61760
C2124       C  0.55134069  0.98940108  0.13473977     0.95010
C2125       C  0.62255908  0.98522111  0.20958657     0.94790
N2126       N  0.62154424  0.89290718  0.17411697    -0.07350
N2127       N  0.63169405  0.88054126  0.19064254    -0.59860
N2128       N  0.57346608  0.91061728  0.14713963    -0.05470
N2129       N  0.55104752  0.90966214  0.14712212    -0.61110
N2130       N  0.58288736  0.89378371  0.13521616    -0.07380
N2131       N  0.56600823  0.88088115  0.12664809    -0.60130
N2132       N  0.60943944  0.90942034  0.18384405    -0.05110
N2133       N  0.61085867  0.90872254  0.20628025    -0.61200
Mn2134     Mn  0.59131740  0.93622317  0.16609973     1.18440
C2135       C  0.62471418  0.89089002  0.21062719     0.97100
C2136       C  0.54626492  0.89127160  0.13446715     0.97760
N2137       N  0.65981815  0.97892853  0.13762423    -0.07400
N2138       N  0.67374166  0.99353743  0.14753811    -0.63710
N2139       N  0.63456647  0.96513117  0.08800639    -0.06200
N2140       N  0.63503375  0.97118202  0.06616576    -0.64380
N2141       N  0.62300293  0.98018272  0.10007711    -0.06900
N2142       N  0.61501754  0.99663887  0.08687196    -0.63970
N2143       N  0.67140414  0.96378018  0.12572745    -0.05800
N2144       N  0.69359056  0.96778505  0.12721316    -0.64660
Mn2145     Mn  0.62263219  0.97936452  0.13721700     1.10660
C2146       C  0.69483539  0.98630536  0.14117314     0.98320
C2147       C  0.62253781  0.99080094  0.06580854     0.98390
N2148       N  0.62506320  0.89437741  0.09478635    -0.06910
N2149       N  0.61992802  0.88024939  0.07744560    -0.62290
N2150       N  0.67150810  0.91118284  0.12313124    -0.06230
N2151       N  0.69390453  0.91066923  0.12418337    -0.59010
N2152       N  0.66221423  0.89385447  0.13423778    -0.07540
N2153       N  0.67903330  0.88103626  0.14328964    -0.61850
N2154       N  0.63593464  0.91220567  0.08620918    -0.06530
N2155       N  0.63827103  0.91075460  0.06391013    -0.59040
Mn2156     Mn  0.62277933  0.89191744  0.13450827     1.20190
Mn2157     Mn  0.65341304  0.93793228  0.10555646     1.10090
Cl2158     Cl  0.62248580  0.93606193  0.13578510    -0.87010
C2159       C  0.62855564  0.89090534  0.05819707     0.95320
C2160       C  0.69868921  0.89210853  0.13677027     0.95120
C2161       C  0.00074488  0.60411981  0.02975107    -0.21350
C2162       C  0.99812528  0.62421900  0.04262958    -0.07920
C2163       C  0.01002068  0.64431985  0.03657887     0.12950
C2164       C  0.02478360  0.64374352  0.01781356    -0.21400
C2165       C  0.02822268  0.62343965  0.00551650    -0.07920
C2166       C  0.01595367  0.60348541  0.01114994     0.12940
C2167       C  0.01916660  0.58166693  0.99771159    -0.24750
H2168       H  0.99136020  0.58887058  0.03459725     0.14230
H2169       H  0.03475889  0.65881321  0.01355493     0.14260
C2170       C  0.00802261  0.66603260  0.05055140    -0.24700
H2171       H  0.00799619  0.56774215  0.00423061     0.04470
H2172       H  0.03724531  0.57577150  0.99895604     0.07700
H2173       H  0.01482659  0.58480427  0.97940956     0.07700
H2174       H  0.01327691  0.66259088  0.06855884     0.07680
H2175       H  0.99006754  0.67239064  0.05031372     0.07680
H2176       H  0.01912090  0.67986317  0.04370494     0.04450
C2177       C  0.03177576  0.01986396  0.60887954    -0.21350
C2178       C  0.02996722  0.00132971  0.62413220    -0.07920
C2179       C  0.00979450  0.99915892  0.63748891     0.12950
C2180       C  0.99367901  0.01721419  0.63748388    -0.21400
C2181       C  0.99726326  0.03725323  0.62456473    -0.07920
C2182       C  0.01589403  0.03789812  0.60892863     0.12940
C2183       C  0.01984228  0.05760705  0.59254023    -0.24750
H2184       H  0.04657474  0.02102170  0.59769777     0.14230
H2185       H  0.97893444  0.01622416  0.64874025     0.14260
C2186       C  0.00535978  0.97851745  0.65240384    -0.24700
H2187       H  0.03373728  0.05374233  0.58007118     0.04470
H2188       H  0.02516942  0.07315698  0.60206088     0.07700
H2189       H  0.00402569  0.06115958  0.58253477     0.07700
H2190       H  0.01829030  0.97746430  0.66632045     0.07680
H2191       H  0.00594497  0.96268931  0.64181544     0.07680
H2192       H  0.98821591  0.97941403  0.66064911     0.04450
C2193       C  0.63074980  0.04571607  0.03345796    -0.21350
C2194       C  0.62117646  0.04027751  0.01219952    -0.07920
C2195       C  0.61356111  0.01783386  0.00768376     0.12950
C2196       C  0.61458949  0.00144855  0.02537241    -0.21400
C2197       C  0.62315420  0.00738915  0.04704782    -0.07920
C2198       C  0.63206067  0.02953300  0.05092041     0.12940
C2199       C  0.64354027  0.03617139  0.07316945    -0.24750
H2200       H  0.63731318  0.06283518  0.03640566     0.14230
H2201       H  0.60821623  0.98425527  0.02251107     0.14260
C2202       C  0.60381785  0.01149461  0.98464754    -0.24700
H2203       H  0.65129961  0.05350002  0.07216135     0.04470
H2204       H  0.65745635  0.02373561  0.07725821     0.07700
H2205       H  0.63088463  0.03659658  0.08735126     0.07700
H2206       H  0.61700989  0.01386595  0.97114253     0.07680
H2207       H  0.58876553  0.02257470  0.98073203     0.07680
H2208       H  0.59821840  0.99332142  0.98422235     0.04450
C2209       C  0.39037806  0.60867755  0.52109374    -0.21350
C2210       C  0.37539511  0.62330272  0.53312921    -0.07920
C2211       C  0.36152213  0.63866572  0.52028640     0.12950
C2212       C  0.36227859  0.63834790  0.49598730    -0.21400
C2213       C  0.37734373  0.62369441  0.48402250    -0.07920
C2214       C  0.39141683  0.60857892  0.49692838     0.12940
C2215       C  0.40760346  0.59214607  0.48510590    -0.24750
H2216       H  0.40206933  0.59783598  0.53075900     0.14230
H2217       H  0.35061188  0.64917330  0.48627255     0.14260
C2218       C  0.34620589  0.65569419  0.53230559    -0.24700
H2219       H  0.41785401  0.58198997  0.49761305     0.04470
H2220       H  0.41964242  0.60189163  0.47408081     0.07700
H2221       H  0.39785579  0.57991571  0.47433522     0.07700
H2222       H  0.35666903  0.66734538  0.54305749     0.07680
H2223       H  0.33387508  0.64643911  0.54341997     0.07680
H2224       H  0.33633006  0.66635644  0.51991216     0.04450
C2225       C  0.49067741  0.51491227  0.62564109    -0.21350
C2226       C  0.49772328  0.53696097  0.63212908    -0.07920
C2227       C  0.52054113  0.54071999  0.63923720     0.12950
C2228       C  0.53620631  0.52276417  0.63787795    -0.21400
C2229       C  0.52969038  0.50115957  0.62992576    -0.07920
C2230       C  0.50660891  0.49674878  0.62450763     0.12940
C2231       C  0.49907974  0.47330457  0.61693535    -0.24750
H2232       H  0.47296637  0.51211383  0.62083402     0.14230
H2233       H  0.55385333  0.52566984  0.64291034     0.14260
C2234       C  0.52854212  0.56341094  0.64877910    -0.24700
H2235       H  0.48044652  0.47294994  0.61306003     0.04470
H2236       H  0.50258987  0.46061973  0.63074805     0.07700
H2237       H  0.50858236  0.46819631  0.60122960     0.07700
H2238       H  0.51725833  0.56880317  0.66316619     0.07680
H2239       H  0.52846575  0.57674166  0.63518810     0.07680
H2240       H  0.54633187  0.56229606  0.65549631     0.04450
C2241       C  0.49001275  0.37257494  0.60727834    -0.21350
C2242       C  0.47409574  0.37782488  0.62499161    -0.07920
C2243       C  0.48288689  0.38347000  0.64678312     0.12950
C2244       C  0.50691103  0.38434818  0.64997737    -0.21400
C2245       C  0.52263067  0.37963486  0.63203166    -0.07920
C2246       C  0.51389507  0.37343576  0.61047305     0.12940
C2247       C  0.52960135  0.36894978  0.59042063    -0.24750
H2248       H  0.48381527  0.36816097  0.59034417     0.14230
H2249       H  0.51353315  0.38948527  0.66656476     0.14260
C2250       C  0.46719636  0.38858512  0.66662613    -0.24700
H2251       H  0.51991569  0.36467720  0.57459904     0.04470
H2252       H  0.54115247  0.35428059  0.59442509     0.07700
H2253       H  0.54000998  0.38442497  0.58679679     0.07700
H2254       H  0.45611904  0.37354432  0.67005893     0.07680
H2255       H  0.45634482  0.40376235  0.66256647     0.07680
H2256       H  0.47694179  0.39238453  0.68253189     0.04450
C2257       C  0.36420900  0.49433652  0.51597649    -0.21350
C2258       C  0.38062985  0.47671358  0.51446159    -0.07920
C2259       C  0.39819644  0.47833272  0.49777867     0.12950
C2260       C  0.39678285  0.49547677  0.48102522    -0.21400
C2261       C  0.37840604  0.51105140  0.48052224    -0.07920
C2262       C  0.36281192  0.51156867  0.49916154     0.12940
C2263       C  0.34379234  0.52909876  0.50082938    -0.24750
H2264       H  0.35124093  0.49361136  0.52926646     0.14230
H2265       H  0.40939160  0.49580373  0.46735643     0.14260
C2266       C  0.41817739  0.46181859  0.49697375    -0.24700
H2267       H  0.33353515  0.52691478  0.51673141     0.04470
H2268       H  0.33195018  0.52735198  0.48604415     0.07700
H2269       H  0.35114590  0.54662415  0.50114781     0.07700
H2270       H  0.41235479  0.44466269  0.49148401     0.07680
H2271       H  0.42640935  0.46070845  0.51411585     0.07680
H2272       H  0.43139835  0.46738017  0.48445955     0.04450
C2273       C  0.35550388  0.49392246  0.62974724    -0.21350
C2274       C  0.37412636  0.47849149  0.63282677    -0.07920
C2275       C  0.39590846  0.48754722  0.63721224     0.12950
C2276       C  0.39866781  0.51148975  0.63773729    -0.21400
C2277       C  0.38024440  0.52710506  0.63397319    -0.07920
C2278       C  0.35825591  0.51800233  0.63029594     0.12940
C2279       C  0.33776301  0.53342819  0.62696071    -0.24750
H2280       H  0.33871380  0.48701895  0.62596472     0.14230
H2281       H  0.41576069  0.51799418  0.64069255     0.14260
C2282       C  0.41652056  0.47209999  0.64006783    -0.24700
H2283       H  0.32179078  0.52344305  0.62458115     0.04470
H2284       H  0.34024183  0.54426185  0.61149100     0.07700
H2285       H  0.33549370  0.54457161  0.64224068     0.07700
H2286       H  0.41911237  0.46170170  0.62431970     0.07680
H2287       H  0.41388210  0.46049197  0.65494217     0.07680
H2288       H  0.43241367  0.48202197  0.64315823     0.04450
C2289       C  0.62072589  0.54558948  0.72986240    -0.21350
C2290       C  0.62723624  0.53831479  0.75180081    -0.07920
C2291       C  0.63137664  0.51488434  0.75623462     0.12950
C2292       C  0.62978823  0.49925722  0.73797461    -0.21400
C2293       C  0.62415216  0.50688307  0.71578201    -0.07920
C2294       C  0.61895980  0.53027100  0.71181040     0.12940
C2295       C  0.61063505  0.53933833  0.68893111    -0.24750
H2296       H  0.61667600  0.56352555  0.72682304     0.14230
H2297       H  0.63325524  0.48118837  0.74090262     0.14260
C2298       C  0.63793208  0.50656658  0.77983012    -0.24700
H2299       H  0.60529041  0.55763749  0.68993913     0.04470
H2300       H  0.59554954  0.52938967  0.68310183     0.07700
H2301       H  0.62453499  0.53831224  0.67598908     0.07700
H2302       H  0.62391852  0.51038557  0.79214843     0.07680
H2303       H  0.65380398  0.51526956  0.78555154     0.07680
H2304       H  0.64111448  0.48775500  0.78007934     0.04450
C2305       C  0.51913905  0.64574484  0.75330952    -0.21350
C2306       C  0.53422871  0.62697639  0.75388482    -0.07920
C2307       C  0.53197124  0.60884032  0.73808392     0.12950
C2308       C  0.51473302  0.61009902  0.72157695    -0.21400
C2309       C  0.50003743  0.62910376  0.72056800    -0.07920
C2310       C  0.50185693  0.64697871  0.73664867     0.12940
C2311       C  0.48586723  0.66732630  0.73589755    -0.24750
H2312       H  0.52124183  0.65960039  0.76549727     0.14230
H2313       H  0.51307393  0.59651206  0.70897901     0.14260
C2314       C  0.54816153  0.58854417  0.73818882    -0.24700
H2315       H  0.48966029  0.67977123  0.74978161     0.04470
H2316       H  0.46791568  0.66145952  0.73798452     0.07700
H2317       H  0.48757813  0.67628871  0.71916544     0.07700
H2318       H  0.54713099  0.57951914  0.75493686     0.07680
H2319       H  0.56600497  0.59442668  0.73537371     0.07680
H2320       H  0.54395011  0.57604623  0.72446725     0.04450
C2321       C  0.26681134  0.46567800  0.39615170    -0.21350
C2322       C  0.24559318  0.47160371  0.38665611    -0.07920
C2323       C  0.24129871  0.49425331  0.37926032     0.12950
C2324       C  0.25923440  0.51024603  0.38011891    -0.21400
C2325       C  0.28101206  0.50366203  0.38810427    -0.07920
C2326       C  0.28459135  0.48138291  0.39707841     0.12940
C2327       C  0.30695828  0.47398031  0.40796724    -0.24750
H2328       H  0.26963854  0.44837441  0.40249199     0.14230
H2329       H  0.25655218  0.52754682  0.37376125     0.14260
C2330       C  0.21830737  0.50115077  0.36970124    -0.24700
H2331       H  0.30572223  0.45668915  0.41590549     0.04470
H2332       H  0.31178108  0.48625686  0.42166919     0.07700
H2333       H  0.32072408  0.47304659  0.39488322     0.07700
H2334       H  0.20483936  0.49857234  0.38289763     0.07680
H2335       H  0.21431641  0.49052382  0.35444160     0.07680
H2336       H  0.21796765  0.51947620  0.36443822     0.04450
C2337       C  0.24274620  0.38024497  0.49402921    -0.21350
C2338       C  0.24971584  0.38159620  0.47097737    -0.07920
C2339       C  0.27308232  0.38534257  0.46562743     0.12950
C2340       C  0.28884089  0.38636912  0.48334536    -0.21400
C2341       C  0.28225419  0.38385448  0.50627529    -0.07920
C2342       C  0.25890964  0.38131885  0.51191235     0.12940
C2343       C  0.25117995  0.37911681  0.53644863    -0.24750
H2344       H  0.22475898  0.37792247  0.49798476     0.14230
H2345       H  0.30671157  0.38917525  0.47912492     0.14260
C2346       C  0.28188974  0.38903613  0.44147396    -0.24700
H2347       H  0.23236854  0.37658572  0.53765886     0.04470
H2348       H  0.25549248  0.39495102  0.54604191     0.07700
H2349       H  0.25981139  0.36417569  0.54463097     0.07700
H2350       H  0.27215912  0.40314878  0.43304953     0.07680
H2351       H  0.28048588  0.37298072  0.43137669     0.07680
H2352       H  0.30026768  0.39389650  0.44120981     0.04450
C2353       C  0.51310028  0.75609233  0.62983556    -0.21350
C2354       C  0.53576669  0.74833984  0.62710981    -0.07920
C2355       C  0.54027113  0.72493586  0.62244493     0.12950
C2356       C  0.52213102  0.70971400  0.62222252    -0.21400
C2357       C  0.49966713  0.71702936  0.62653554    -0.07920
C2358       C  0.49481970  0.74053371  0.62966503     0.12940
C2359       C  0.47077969  0.74901463  0.63377192    -0.24750
H2360       H  0.50980695  0.77417095  0.63279365     0.14230
H2361       H  0.52562601  0.69172361  0.61887360     0.14260
C2362       C  0.56393823  0.71566139  0.61709587    -0.24700
H2363       H  0.47018778  0.76789321  0.63630814     0.04470
H2364       H  0.46383434  0.74073762  0.64940914     0.07700
H2365       H  0.45978264  0.74482741  0.61883011     0.07700
H2366       H  0.57498690  0.71642980  0.63256042     0.07680
H2367       H  0.57169743  0.72562969  0.60285676     0.07680
H2368       H  0.56350468  0.69740423  0.61166589     0.04450
C2369       C  0.63424459  0.75528043  0.74067606    -0.21350
C2370       C  0.61742834  0.75403910  0.72353952    -0.07920
C2371       C  0.59959333  0.73787591  0.72556320     0.12950
C2372       C  0.60059236  0.72169097  0.74326739    -0.21400
C2373       C  0.61899378  0.72116074  0.75874621    -0.07920
C2374       C  0.63545841  0.73888501  0.75819662     0.12940
C2375       C  0.65527450  0.73987500  0.77477238    -0.24750
H2376       H  0.64761163  0.76804967  0.73937489     0.14230
H2377       H  0.58758758  0.70851549  0.74421901     0.14260
C2378       C  0.57964915  0.73728400  0.70909666    -0.24700
H2379       H  0.66642598  0.75490382  0.77148971     0.04470
H2380       H  0.66608755  0.72422520  0.77306828     0.07700
H2381       H  0.64873198  0.74138529  0.79259230     0.07700
H2382       H  0.58540981  0.73177666  0.69182478     0.07680
H2383       H  0.57152356  0.75453205  0.70804321     0.07680
H2384       H  0.56635000  0.72495135  0.71475346     0.04450
C2385       C  0.28877337  0.27629429  0.37112715    -0.21350
C2386       C  0.28206840  0.25413077  0.37727029    -0.07920
C2387       C  0.25900796  0.24954693  0.38255901     0.12950
C2388       C  0.24326891  0.26791112  0.38283801    -0.21400
C2389       C  0.25050883  0.29039197  0.37816759    -0.07920
C2390       C  0.27339314  0.29450435  0.37150293     0.12940
C2391       C  0.28175325  0.31780600  0.36400935    -0.24750
H2392       H  0.30643320  0.27948358  0.36629357     0.14230
H2393       H  0.22551742  0.26486876  0.38730817     0.14260
C2394       C  0.25130921  0.22569565  0.38861448    -0.24700
H2395       H  0.29959005  0.31713182  0.35736157     0.04470
H2396       H  0.28164549  0.32991938  0.37866622     0.07700
H2397       H  0.27062058  0.32436090  0.35003014     0.07700
H2398       H  0.26094549  0.21935980  0.40380780     0.07680
H2399       H  0.25448194  0.21399106  0.37392578     0.07680
H2400       H  0.23272954  0.22526302  0.39271345     0.04450
C2401       C  0.36831004  0.27073018  0.51007672    -0.21350
C2402       C  0.36828883  0.29358203  0.50230396    -0.07920
C2403       C  0.36810055  0.29822740  0.47843962     0.12950
C2404       C  0.36741348  0.28000654  0.46320813    -0.21400
C2405       C  0.36732132  0.25718694  0.47075655    -0.07920
C2406       C  0.36785350  0.25233998  0.49448879     0.12940
C2407       C  0.36744451  0.22808418  0.50340110    -0.24750
H2408       H  0.36867138  0.26728512  0.52836385     0.14230
H2409       H  0.36760629  0.28379191  0.44499344     0.14260
C2410       C  0.36969899  0.32212934  0.46840088    -0.24700
H2411       H  0.36693829  0.22756770  0.52244968     0.04470
H2412       H  0.38304781  0.21868417  0.49778240     0.07700
H2413       H  0.35199148  0.21923297  0.49685429     0.07700
H2414       H  0.38517887  0.33087745  0.47507655     0.07680
H2415       H  0.35403014  0.33216718  0.47255959     0.07680
H2416       H  0.37113651  0.32192937  0.44939356     0.04450
C2417       C  0.39041171  0.15077798  0.26925749    -0.21350
C2418       C  0.38046839  0.13348674  0.28283125    -0.07920
C2419       C  0.36850518  0.11569611  0.27168790     0.12950
C2420       C  0.36726362  0.11536767  0.24743759    -0.21400
C2421       C  0.37696254  0.13290076  0.23396021    -0.07920
C2422       C  0.38898406  0.15059725  0.24515551     0.12940
C2423       C  0.40081705  0.16909622  0.23156070    -0.24750
H2424       H  0.39874891  0.16504474  0.27769475     0.14230
H2425       H  0.35914836  0.10103788  0.23890326     0.14260
C2426       C  0.35660550  0.09741613  0.28540944    -0.24700
H2427       H  0.40952417  0.18160677  0.24288983     0.04470
H2428       H  0.38805503  0.17851965  0.22094298     0.07700
H2429       H  0.41401772  0.16136777  0.22017734     0.07700
H2430       H  0.34334526  0.10535578  0.29658058     0.07680
H2431       H  0.36929918  0.08819163  0.29626992     0.07680
H2432       H  0.34807270  0.08470137  0.27414897     0.04450
C2433       C  0.53954663  0.02934677  0.13093749    -0.21350
C2434       C  0.53262664  0.00653594  0.13378058    -0.07920
C2435       C  0.50907146  0.00160546  0.13609569     0.12950
C2436       C  0.49312437  0.01986366  0.13544013    -0.21400
C2437       C  0.50032460  0.04271239  0.13259705    -0.07920
C2438       C  0.52403973  0.04743262  0.13051188     0.12940
C2439       C  0.53382923  0.07138155  0.12877945    -0.24750
H2440       H  0.55758689  0.03339174  0.12958606     0.14230
H2441       H  0.47499657  0.01630633  0.13722324     0.14260
C2442       C  0.50067383  0.97738792  0.13887525    -0.24700
H2443       H  0.55286565  0.07136655  0.12868679     0.04470
H2444       H  0.52835689  0.08178618  0.14378754     0.07700
H2445       H  0.52831926  0.07963940  0.11250414     0.07700
H2446       H  0.50728381  0.96996346  0.15513732     0.07680
H2447       H  0.50658186  0.96677542  0.12419297     0.07680
H2448       H  0.48166397  0.97668350  0.13946263     0.04450
C2449       C  0.49182217  0.13013835  0.02253934    -0.21350
C2450       C  0.49860847  0.13518579  0.04509676    -0.07920
C2451       C  0.52163879  0.14099534  0.04974963     0.12950
C2452       C  0.53753217  0.14007614  0.03206206    -0.21400
C2453       C  0.53121266  0.13365557  0.00984746    -0.07920
C2454       C  0.50804439  0.12928249  0.00468399     0.12940
C2455       C  0.50066461  0.12298348  0.98077054    -0.24750
H2456       H  0.47402973  0.12619540  0.01906717     0.14230
H2457       H  0.55524780  0.14426877  0.03570722     0.14260
C2458       C  0.52974965  0.14872397  0.07312670    -0.24700
H2459       H  0.48198350  0.11954965  0.97991385     0.04470
H2460       H  0.50995810  0.10731195  0.97508210     0.07700
H2461       H  0.50449295  0.13728228  0.96879441     0.07700
H2462       H  0.52921317  0.13427060  0.08551028     0.07680
H2463       H  0.51888782  0.16314712  0.07932535     0.07680
H2464       H  0.54774129  0.15482908  0.07270077     0.04450
C2465       C  0.38687862  0.63193222  0.26967074    -0.21350
C2466       C  0.36927498  0.62186042  0.28279018    -0.07920
C2467       C  0.35076750  0.61172278  0.27101620     0.12950
C2468       C  0.34974050  0.61277347  0.24685064    -0.21400
C2469       C  0.36713166  0.62307488  0.23367583    -0.07920
C2470       C  0.38585468  0.63294194  0.24536781     0.12940
C2471       C  0.40441906  0.64501808  0.23223732    -0.24750
H2472       H  0.40171603  0.63871541  0.27848359     0.14230
H2473       H  0.33493001  0.60580758  0.23811183     0.14260
C2474       C  0.33226833  0.59929782  0.28399424    -0.24700
H2475       H  0.41783389  0.65184645  0.24384608     0.04470
H2476       H  0.39695762  0.65961858  0.22244469     0.07700
H2477       H  0.41266699  0.63284781  0.22009908     0.07700
H2478       H  0.32368798  0.61130453  0.29606835     0.07680
H2479       H  0.33985730  0.58477964  0.29381183     0.07680
H2480       H  0.31910055  0.59217874  0.27229705     0.04450
C2481       C  0.22214474  0.62104712  0.05259587    -0.21350
C2482       C  0.24465504  0.62554540  0.04586891    -0.07920
C2483       C  0.24986033  0.62906893  0.02249701     0.12950
C2484       C  0.23189856  0.62891690  0.00641940    -0.21400
C2485       C  0.20918554  0.62539943  0.01349869    -0.07920
C2486       C  0.20434479  0.62082986  0.03686840     0.12940
C2487       C  0.18069554  0.61496699  0.04562925    -0.24750
H2488       H  0.21837561  0.61755463  0.07048519     0.14230
H2489       H  0.23548684  0.63198220  0.98841912     0.14260
C2490       C  0.27398410  0.63357927  0.01465739    -0.24700
H2491       H  0.18094681  0.60960419  0.06392881     0.04470
H2492       H  0.17355780  0.60051901  0.03559814     0.07700
H2493       H  0.16921120  0.63016292  0.04449206     0.07700
H2494       H  0.28498079  0.61848914  0.01855671     0.07680
H2495       H  0.28082112  0.64889768  0.02358294     0.07680
H2496       H  0.27480392  0.63675021  0.99587540     0.04450
C2497       C  0.35434501  0.26506379  0.61137881    -0.21350
C2498       C  0.36964986  0.27789057  0.62469685    -0.07920
C2499       C  0.38603396  0.26588284  0.63812077     0.12950
C2500       C  0.38605669  0.24156419  0.63862789    -0.21400
C2501       C  0.37059526  0.22874792  0.62534843    -0.07920
C2502       C  0.35450494  0.24089832  0.61160081     0.12940
C2503       C  0.33693352  0.22880256  0.59707374    -0.24750
H2504       H  0.34249251  0.27401890  0.60010653     0.14230
H2505       H  0.39769514  0.23253881  0.65004530     0.14260
C2506       C  0.40364412  0.27879743  0.65174483    -0.24700
H2507       H  0.33879577  0.23427279  0.57891180     0.04470
H2508       H  0.31944665  0.23340843  0.60310606     0.07700
H2509       H  0.33877205  0.20986252  0.59756909     0.07700
H2510       H  0.39491626  0.29032905  0.66416849     0.07680
H2511       H  0.41439981  0.28922595  0.64003058     0.07680
H2512       H  0.41510728  0.26700122  0.66146248     0.04450
C2513       C  0.35735945  0.14980555  0.52176498    -0.21350
C2514       C  0.37179237  0.13385930  0.53273676    -0.07920
C2515       C  0.38413098  0.11804832  0.51893846     0.12950
C2516       C  0.38250747  0.11921805  0.49471170    -0.21400
C2517       C  0.36797692  0.13519991  0.48383232    -0.07920
C2518       C  0.35527347  0.15064638  0.49771207     0.12940
C2519       C  0.33915792  0.16799919  0.48707954    -0.24750
H2520       H  0.34672222  0.16098743  0.53220171     0.14230
H2521       H  0.39306885  0.10801666  0.48423153     0.14260
C2522       C  0.39873585  0.09968350  0.52988168    -0.24700
H2523       H  0.32987130  0.17812745  0.50030758     0.04470
H2524       H  0.32626108  0.15901859  0.47640934     0.07700
H2525       H  0.34876690  0.18022527  0.47616794     0.07700
H2526       H  0.38793162  0.08837161  0.54069145     0.07680
H2527       H  0.41204045  0.10774849  0.54077437     0.07680
H2528       H  0.40744629  0.08884045  0.51682621     0.04450
C2529       C  0.20532811  0.03131709  0.63300017    -0.21350
C2530       C  0.21265822  0.00843155  0.63156542    -0.07920
C2531       C  0.23626677  0.00350570  0.62905974     0.12950
C2532       C  0.25188659  0.02182678  0.62838878    -0.21400
C2533       C  0.24431864  0.04475421  0.62989761    -0.07920
C2534       C  0.22053755  0.04947320  0.63185185     0.12940
C2535       C  0.21042363  0.07343820  0.63177135    -0.24750
H2536       H  0.18721965  0.03528769  0.63438746     0.14230
H2537       H  0.27005454  0.01824296  0.62665071     0.14260
C2538       C  0.24509084  0.97922373  0.62744012    -0.24700
H2539       H  0.19138768  0.07338370  0.63174470     0.04470
H2540       H  0.21593043  0.08280212  0.61612681     0.07700
H2541       H  0.21571334  0.08276769  0.64741487     0.07700
H2542       H  0.23844501  0.97097965  0.61165489     0.07680
H2543       H  0.23956397  0.96929662  0.64272220     0.07680
H2544       H  0.26410286  0.97859471  0.62663790     0.04450
C2545       C  0.47441674  0.29574605  0.39031705    -0.21350
C2546       C  0.49679313  0.28881760  0.38500839    -0.07920
C2547       C  0.50191456  0.26541049  0.38162087     0.12950
C2548       C  0.48393822  0.24948358  0.38227125    -0.21400
C2549       C  0.46131548  0.25678703  0.38625363    -0.07920
C2550       C  0.45660880  0.28008172  0.39114084     0.12940
C2551       C  0.43306066  0.28870115  0.39786903    -0.24750
H2552       H  0.47079552  0.31362166  0.39381526     0.14230
H2553       H  0.48735372  0.23170840  0.37903129     0.14260
C2554       C  0.52593481  0.25735967  0.37648739    -0.24700
H2555       H  0.43335003  0.30694768  0.40332347     0.04470
H2556       H  0.42639993  0.27846294  0.41248175     0.07700
H2557       H  0.42114333  0.28763549  0.38309400     0.07700
H2558       H  0.53741998  0.26156078  0.39105730     0.07680
H2559       H  0.53224606  0.26592287  0.36070153     0.07680
H2560       H  0.52671919  0.23852688  0.37374092     0.04450
C2561       C  0.47614045  0.38939409  0.46695315    -0.21350
C2562       C  0.49846148  0.38331616  0.47346745    -0.07920
C2563       C  0.50312348  0.37835417  0.49677578     0.12950
C2564       C  0.48493683  0.37900060  0.51271511    -0.21400
C2565       C  0.46239230  0.38415066  0.50568806    -0.07920
C2566       C  0.45804634  0.38928225  0.48226681     0.12940
C2567       C  0.43439070  0.39338980  0.47230222    -0.24750
H2568       H  0.47228827  0.39329294  0.44919363     0.14230
H2569       H  0.48824609  0.37507517  0.53061514     0.14260
C2570       C  0.52696114  0.37263405  0.50494273    -0.24700
H2571       H  0.43464460  0.39565163  0.45337386     0.04470
H2572       H  0.42684836  0.40931601  0.47944008     0.07700
H2573       H  0.42322994  0.37843532  0.47586624     0.07700
H2574       H  0.53883360  0.38661794  0.50005124     0.07680
H2575       H  0.53286678  0.35626691  0.49718933     0.07680
H2576       H  0.52763787  0.37060843  0.52389377     0.04450
C2577       C  0.59913743  0.38990075  0.49766629    -0.21350
C2578       C  0.61685589  0.38046555  0.48418840    -0.07920
C2579       C  0.63517317  0.36915502  0.49538908     0.12950
C2580       C  0.63567273  0.36826882  0.51964517    -0.21400
C2581       C  0.61788197  0.37773967  0.53306897    -0.07920
C2582       C  0.59952339  0.38886385  0.52177330     0.12940
C2583       C  0.58063433  0.40035953  0.53525875    -0.24750
H2584       H  0.58453759  0.39776647  0.48916191     0.14230
H2585       H  0.65043764  0.36081865  0.52823130     0.14260
C2586       C  0.65388980  0.35767277  0.48176515    -0.24700
H2587       H  0.56755924  0.40830821  0.52385804     0.04470
H2588       H  0.58782581  0.41412790  0.54621233     0.07700
H2589       H  0.57199927  0.38750921  0.54630369     0.07700
H2590       H  0.66255119  0.37054878  0.47077702     0.07680
H2591       H  0.64648621  0.34408553  0.47073078     0.07680
H2592       H  0.66695775  0.34959039  0.49309755     0.04450
C2593       C  0.48038217  0.46652834  0.40411592    -0.21350
C2594       C  0.50011560  0.47064277  0.39103310    -0.07920
C2595       C  0.50292642  0.49249921  0.38083913     0.12950
C2596       C  0.48459557  0.50835181  0.38155003    -0.21400
C2597       C  0.46365291  0.50286436  0.39216522    -0.07920
C2598       C  0.46204723  0.48196624  0.40463760     0.12940
C2599       C  0.44099429  0.47488180  0.41796560    -0.24750
H2600       H  0.47856726  0.45031535  0.41304775     0.14230
H2601       H  0.48629208  0.52466891  0.37280317     0.14260
C2602       C  0.52477211  0.49917074  0.36888432    -0.24700
H2603       H  0.44380152  0.45873852  0.42775995     0.04470
H2604       H  0.42652083  0.47161305  0.40606285     0.07700
H2605       H  0.43634318  0.48836332  0.43058265     0.07700
H2606       H  0.52745587  0.48834725  0.35347677     0.07680
H2607       H  0.53948245  0.49712977  0.38084071     0.07680
H2608       H  0.52430079  0.51734240  0.36312185     0.04450
C2609       C  0.50806095  0.61360989  0.40833018    -0.21350
C2610       C  0.52205181  0.62108540  0.39008127    -0.07920
C2611       C  0.51125852  0.62969608  0.37012749     0.12950
C2612       C  0.48699386  0.62996506  0.36874145    -0.21400
C2613       C  0.47311586  0.62270287  0.38720002    -0.07920
C2614       C  0.48397472  0.61422381  0.40711548     0.12940
C2615       C  0.47009428  0.60519171  0.42694924    -0.24750
H2616       H  0.51613581  0.60762818  0.42401074     0.14230
H2617       H  0.47877509  0.63548136  0.35296285     0.14260
C2618       C  0.52525356  0.63912603  0.35064597    -0.24700
H2619       H  0.48117817  0.59932334  0.44132912     0.04470
H2620       H  0.45961964  0.59040496  0.42126743     0.07700
H2621       H  0.45856833  0.61892738  0.43348513     0.07700
H2622       H  0.53681354  0.62553416  0.34389334     0.07680
H2623       H  0.53568811  0.65375889  0.35678243     0.07680
H2624       H  0.51422213  0.64532888  0.33636245     0.04450
C2625       C  0.50889919  0.61870412  0.50128623    -0.21350
C2626       C  0.53122076  0.62387298  0.50867744    -0.07920
C2627       C  0.53498945  0.63173443  0.53128135     0.12950
C2628       C  0.51664890  0.63274110  0.54631073    -0.21400
C2629       C  0.49469006  0.62602988  0.53962349    -0.07920
C2630       C  0.49038050  0.61962375  0.51674022     0.12940
C2631       C  0.46667076  0.61325696  0.50894749    -0.24750
H2632       H  0.50609580  0.61346883  0.48366025     0.14230
H2633       H  0.51959457  0.63850443  0.56375016     0.14260
C2634       C  0.55809282  0.63969302  0.53980705    -0.24700
H2635       H  0.46642082  0.60842349  0.49051324     0.04470
H2636       H  0.45483912  0.62805217  0.51136062     0.07700
H2637       H  0.46037925  0.59846700  0.51912613     0.07700
H2638       H  0.56495736  0.65311239  0.52818895     0.07680
H2639       H  0.57022908  0.62500244  0.54085068     0.07680
H2640       H  0.55703448  0.64721286  0.55728197     0.04450
C2641       C  0.63612229  0.51507036  0.50179034    -0.21350
C2642       C  0.61715681  0.52987793  0.50038216    -0.07920
C2643       C  0.59710567  0.52488900  0.51290823     0.12950
C2644       C  0.59753390  0.50674838  0.52866715    -0.21400
C2645       C  0.61749705  0.49367434  0.53214616    -0.07920
C2646       C  0.63672031  0.49712301  0.51776132     0.12940
C2647       C  0.65859206  0.48343381  0.52033138    -0.24750
H2648       H  0.65133108  0.51875164  0.49177655     0.14230
H2649       H  0.58265501  0.50364543  0.53934887     0.14260
C2650       C  0.57536936  0.53869767  0.50992885    -0.24700
H2651       H  0.67187020  0.48889352  0.50783878     0.04470
H2652       H  0.65515161  0.46498877  0.51726307     0.07700
H2653       H  0.66575933  0.48582531  0.53781402     0.07700
H2654       H  0.57033271  0.53884393  0.49154942     0.07680
H2655       H  0.57780972  0.55654008  0.51595423     0.07680
H2656       H  0.56098484  0.53130400  0.51993045     0.04450
C2657       C  0.60745816  0.51412960  0.40583376    -0.21350
C2658       C  0.61959081  0.52666418  0.38922115    -0.07920
C2659       C  0.63208804  0.51442797  0.37238465     0.12950
C2660       C  0.63154464  0.49014251  0.37217339    -0.21400
C2661       C  0.61942647  0.47766464  0.38891042    -0.07920
C2662       C  0.60701000  0.48998544  0.40572691     0.12940
C2663       C  0.59288627  0.47758145  0.42343586    -0.24750
H2664       H  0.59867407  0.52336385  0.41940299     0.14230
H2665       H  0.64012834  0.48085312  0.35850936     0.14260
C2666       C  0.64629286  0.52700714  0.35493777    -0.24700
H2667       H  0.58454671  0.48967886  0.43560158     0.04470
H2668       H  0.60405151  0.46574893  0.43343075     0.07700
H2669       H  0.57920418  0.46755551  0.41489994     0.07700
H2670       H  0.65966106  0.53721352  0.36375102     0.07680
H2671       H  0.63513650  0.53871367  0.34478970     0.07680
H2672       H  0.65496587  0.51499369  0.34291682     0.04450
C2673       C  0.64593690  0.72025027  0.51928642    -0.21350
C2674       C  0.62671220  0.71922558  0.50493232    -0.07920
C2675       C  0.61065058  0.73757275  0.50507553     0.12950
C2676       C  0.61299288  0.75504197  0.52142542    -0.21400
C2677       C  0.63073570  0.75445673  0.53765920    -0.07920
C2678       C  0.64826972  0.73768271  0.53558968     0.12940
C2679       C  0.66936753  0.73774830  0.55056437    -0.24750
H2680       H  0.65872050  0.70669667  0.51848365     0.14230
H2681       H  0.59988074  0.76824214  0.52261507     0.14260
C2682       C  0.59019855  0.73825917  0.48926661    -0.24700
H2683       H  0.68225040  0.72492871  0.54469322     0.04470
H2684       H  0.66494887  0.73329380  0.56851140     0.07700
H2685       H  0.67751042  0.75490514  0.54995679     0.07700
H2686       H  0.57928001  0.72301040  0.49224093     0.07680
H2687       H  0.59603204  0.73867011  0.47113838     0.07680
H2688       H  0.57940142  0.75375260  0.49215019     0.04450
C2689       C  0.36349952  0.24385148  0.12401383    -0.21350
C2690       C  0.37559404  0.23073247  0.14038322    -0.07920
C2691       C  0.38937335  0.24238568  0.15651048     0.12950
C2692       C  0.39035275  0.26651456  0.15623439    -0.21400
C2693       C  0.37826771  0.27967875  0.13995206    -0.07920
C2694       C  0.36434308  0.26811885  0.12389808     0.12940
C2695       C  0.35005658  0.28144925  0.10694393    -0.24750
H2696       H  0.35391568  0.23503485  0.11079496     0.14230
H2697       H  0.40014778  0.27528352  0.16934185     0.14260
C2698       C  0.40347973  0.22924691  0.17385074    -0.24700
H2699       H  0.34021743  0.26992055  0.09548024     0.04470
H2700       H  0.36135040  0.29228623  0.09615922     0.07700
H2701       H  0.33766718  0.29262083  0.11620844     0.07700
H2702       H  0.41627042  0.21822048  0.16496891     0.07680
H2703       H  0.39209280  0.21830473  0.18443255     0.07680
H2704       H  0.41292460  0.24089841  0.18552529     0.04450
C2705       C  0.37452847  0.48981832  0.12144359    -0.21350
C2706       C  0.37127332  0.48147346  0.14375909    -0.07920
C2707       C  0.36857029  0.49767211  0.16195570     0.12950
C2708       C  0.36952527  0.52133055  0.15743391    -0.21400
C2709       C  0.37256893  0.52965493  0.13523435    -0.07920
C2710       C  0.37493142  0.51366810  0.11694585     0.12940
C2711       C  0.37797969  0.52180850  0.09258203    -0.24750
H2712       H  0.37715286  0.47770419  0.10757819     0.14230
H2713       H  0.36651436  0.53348763  0.17119412     0.14260
C2714       C  0.36370716  0.49037717  0.18633149    -0.24700
H2715       H  0.38051795  0.50723938  0.08055817     0.04470
H2716       H  0.39323118  0.53304326  0.09148566     0.07700
H2717       H  0.36261643  0.53152691  0.08682491     0.07700
H2718       H  0.37928812  0.48280608  0.19420585     0.07680
H2719       H  0.34945563  0.47785541  0.18667905     0.07680
H2720       H  0.35860025  0.50516531  0.19723309     0.04450
C2721       C  0.36534099  0.49062731  0.25589528    -0.21350
C2722       C  0.37337004  0.46867942  0.26191950    -0.07920
C2723       C  0.38152798  0.46436237  0.28435029     0.12950
C2724       C  0.38017423  0.48165283  0.30058699    -0.21400
C2725       C  0.37117836  0.50319171  0.29504187    -0.07920
C2726       C  0.36422922  0.50817199  0.27240520     0.12940
C2727       C  0.35512242  0.53153915  0.26598432    -0.24750
H2728       H  0.35942738  0.49381876  0.23855420     0.14230
H2729       H  0.38626545  0.47832308  0.31787509     0.14260
C2730       C  0.39238728  0.44181906  0.29126046    -0.24700
H2731       H  0.35006891  0.53233644  0.24762113     0.04470
H2732       H  0.36848158  0.54467670  0.26898097     0.07700
H2733       H  0.33983857  0.53569918  0.27657551     0.07700
H2734       H  0.40620368  0.43748059  0.27895600     0.07680
H2735       H  0.37941833  0.42800555  0.29155199     0.07680
H2736       H  0.40010785  0.44257706  0.30866441     0.04450
C2737       C  0.24331716  0.38691558  0.26931151    -0.21350
C2738       C  0.24947827  0.38320203  0.29234055    -0.07920
C2739       C  0.27250616  0.37799277  0.29807284     0.12950
C2740       C  0.28883337  0.37767670  0.28087940    -0.21400
C2741       C  0.28309960  0.38235941  0.25808258    -0.07920
C2742       C  0.26007443  0.38660374  0.25192604     0.12940
C2743       C  0.25336522  0.39135473  0.22742014    -0.24750
H2744       H  0.22554873  0.39041088  0.26503564     0.14230
H2745       H  0.30642613  0.37357632  0.28537764     0.14260
C2746       C  0.28024292  0.37190112  0.32209532    -0.24700
H2747       H  0.23471091  0.39492204  0.22579627     0.04470
H2748       H  0.25752024  0.37626456  0.21656203     0.07700
H2749       H  0.26280564  0.40651986  0.22093083     0.07700
H2750       H  0.26931661  0.35805696  0.32904426     0.07680
H2751       H  0.27935332  0.38721053  0.33335194     0.07680
H2752       H  0.29825763  0.36563477  0.32254840     0.04450
C2753       C  0.36175984  0.27261523  0.29529265    -0.21350
C2754       C  0.37377367  0.25232008  0.29072547    -0.07920
C2755       C  0.38429190  0.24884153  0.26925651     0.12950
C2756       C  0.38371885  0.26673491  0.25309636    -0.21400
C2757       C  0.37285221  0.28759271  0.25839858    -0.07920
C2758       C  0.36104887  0.29032898  0.27936108     0.12940
C2759       C  0.34750682  0.31177626  0.28502536    -0.24750
H2760       H  0.35319298  0.27475656  0.31168825     0.14230
H2761       H  0.39233220  0.26476785  0.23672243     0.14260
C2762       C  0.39660501  0.22675731  0.26383244    -0.24700
H2763       H  0.33812727  0.31008840  0.30152653     0.04470
H2764       H  0.33469045  0.31520668  0.27134163     0.07700
H2765       H  0.35909868  0.32668195  0.28668517     0.07700
H2766       H  0.38442299  0.21223919  0.26489575     0.07680
H2767       H  0.41071766  0.22391356  0.27631366     0.07680
H2768       H  0.40405794  0.22701129  0.24629197     0.04450
C2769       C  0.48748049  0.39711912  0.28855862    -0.21350
C2770       C  0.50164390  0.37784847  0.29086852    -0.07920
C2771       C  0.49859916  0.35857225  0.27667922     0.12950
C2772       C  0.48080818  0.35885316  0.26049035    -0.21400
C2773       C  0.46615316  0.37789718  0.25878988    -0.07920
C2774       C  0.46951858  0.39726846  0.27282315     0.12940
C2775       C  0.45338645  0.41753455  0.27210289    -0.24750
H2776       H  0.48976739  0.41162492  0.29997599     0.14230
H2777       H  0.47793622  0.34406331  0.24964164     0.14260
C2778       C  0.51384954  0.33777505  0.27894769    -0.24700
H2779       H  0.45818057  0.43095125  0.28471385     0.04470
H2780       H  0.43584752  0.41162767  0.27627147     0.07700
H2781       H  0.45347524  0.42538716  0.25475157     0.07700
H2782       H  0.51228892  0.33046572  0.29647703     0.07680
H2783       H  0.53193989  0.34272205  0.27586740     0.07680
H2784       H  0.50921639  0.32425457  0.26639562     0.04450
C2785       C  0.25496511  0.51382445  0.14230975    -0.21350
C2786       C  0.24937638  0.53595028  0.13459294    -0.07920
C2787       C  0.22704303  0.54097918  0.12653940     0.12950
C2788       C  0.21031949  0.52428906  0.12829023    -0.21400
C2789       C  0.21538184  0.50264089  0.13730782    -0.07920
C2790       C  0.23803335  0.49684075  0.14354995     0.12940
C2791       C  0.24409458  0.47319920  0.15208631    -0.24750
H2792       H  0.27229146  0.51009023  0.14796637     0.14230
H2793       H  0.19305738  0.52817545  0.12248636     0.14260
C2794       C  0.22065087  0.56371608  0.11564889    -0.24700
H2795       H  0.26252519  0.47185562  0.15668554     0.04470
H2796       H  0.24053583  0.46033153  0.13853799     0.07700
H2797       H  0.23379397  0.46911524  0.16755882     0.07700
H2798       H  0.23281714  0.56777566  0.10158855     0.07680
H2799       H  0.22075968  0.57762411  0.12860195     0.07680
H2800       H  0.20315272  0.56341400  0.10814855     0.04450
C2801       C  0.23758026  0.40143013  0.15107415    -0.21350
C2802       C  0.22477937  0.38448206  0.13971397    -0.07920
C2803       C  0.23681976  0.36689682  0.12806067     0.12950
C2804       C  0.26112543  0.36658713  0.12830099    -0.21400
C2805       C  0.27384897  0.38385363  0.13935902    -0.07920
C2806       C  0.26171736  0.40113212  0.15132958     0.12940
C2807       C  0.27431829  0.41904801  0.16493178    -0.24750
H2808       H  0.22854112  0.41543293  0.15940413     0.14230
H2809       H  0.27025990  0.35247616  0.12026204     0.14260
C2810       C  0.22402817  0.34878212  0.11501133    -0.24700
H2811       H  0.26234366  0.43115871  0.17351638     0.04470
H2812       H  0.28566144  0.42898591  0.15334993     0.07700
H2813       H  0.28484421  0.41071462  0.17849078     0.07700
H2814       H  0.21356833  0.35690583  0.10127609     0.07680
H2815       H  0.21256718  0.33934398  0.12689081     0.07680
H2816       H  0.23588844  0.33621745  0.10689000     0.04450
C2817       C  0.14904144  0.38373323  0.26442585    -0.21350
C2818       C  0.13006925  0.38255051  0.27952388    -0.07920
C2819       C  0.10800899  0.38045125  0.26995453     0.12950
C2820       C  0.10553090  0.38010974  0.24580158    -0.21400
C2821       C  0.12460044  0.38120558  0.23085816    -0.07920
C2822       C  0.14661456  0.38302079  0.24044556     0.12940
C2823       C  0.16751211  0.38527392  0.22542489    -0.24750
H2824       H  0.16615920  0.38516037  0.27149218     0.14230
H2825       H  0.08847493  0.37955775  0.23845280     0.14260
C2826       C  0.08723956  0.37815321  0.28503474    -0.24700
H2827       H  0.18347333  0.38669309  0.23570253     0.04470
H2828       H  0.16598822  0.40088063  0.21456268     0.07700
H2829       H  0.16913171  0.36994926  0.21423901     0.07700
H2830       H  0.08546050  0.39359288  0.29603021     0.07680
H2831       H  0.08902603  0.36268834  0.29606174     0.07680
H2832       H  0.07130842  0.37640636  0.27477135     0.04450
C2833       C  0.14277592  0.51580952  0.03777893    -0.21350
C2834       C  0.12377742  0.50193396  0.04181400    -0.07920
C2835       C  0.10447174  0.50306554  0.02737018     0.12950
C2836       C  0.10419839  0.51914008  0.00945848    -0.21400
C2837       C  0.12289824  0.53368842  0.00603943    -0.07920
C2838       C  0.14251278  0.53190758  0.02010049     0.12940
C2839       C  0.16264650  0.54778866  0.01726258    -0.24750
H2840       H  0.15747136  0.51469201  0.04914680     0.14230
H2841       H  0.08915997  0.52092824  0.99866895     0.14260
C2842       C  0.08420327  0.48767958  0.03117990    -0.24700
H2843       H  0.17623631  0.54435181  0.03018948     0.04470
H2844       H  0.15691058  0.56586123  0.01932044     0.07700
H2845       H  0.17027199  0.54553680  0.99996935     0.07700
H2846       H  0.07686308  0.49081385  0.04847157     0.07680
H2847       H  0.08971398  0.46945530  0.02991048     0.07680
H2848       H  0.07055398  0.49077959  0.01823852     0.04450
C2849       C  0.01575208  0.50118160  0.14629963    -0.21350
C2850       C  0.03102114  0.50135600  0.12770934    -0.07920
C2851       C  0.02745125  0.51682653  0.10939832     0.12950
C2852       C  0.01009359  0.53336156  0.11131960    -0.21400
C2853       C  0.99644224  0.53480685  0.13108693    -0.07920
C2854       C  0.99858975  0.51791112  0.14840619     0.12940
C2855       C  0.98422858  0.51831605  0.16992055    -0.24750
H2856       H  0.01837014  0.48901934  0.16017194     0.14230
H2857       H  0.00795487  0.54601886  0.09782146     0.14260
C2858       C  0.04189982  0.51614723  0.08794308    -0.24700
H2859       H  0.98877969  0.50403741  0.18175424     0.04470
H2860       H  0.96585393  0.51649890  0.16541904     0.07700
H2861       H  0.98692289  0.53465601  0.17929519     0.07700
H2862       H  0.04150163  0.49865593  0.08042865     0.07680
H2863       H  0.05984027  0.52090047  0.09184460     0.07680
H2864       H  0.03546933  0.52838338  0.07476881     0.04450
C2865       C  0.23891580  0.35142323  0.62810746    -0.21350
C2866       C  0.22341022  0.37024056  0.62747054    -0.07920
C2867       C  0.23256552  0.39253896  0.62657325     0.12950
C2868       C  0.25664200  0.39533385  0.62598105    -0.21400
C2869       C  0.27201673  0.37644278  0.62673463    -0.07920
C2870       C  0.26286060  0.35421271  0.62780932     0.12940
C2871       C  0.27822505  0.33333999  0.62764527    -0.24750
H2872       H  0.23222762  0.33413288  0.62887289     0.14230
H2873       H  0.26358074  0.41249032  0.62453968     0.14260
C2874       C  0.21714843  0.41331303  0.62672606    -0.24700
H2875       H  0.26825672  0.31717220  0.62826730     0.04470
H2876       H  0.28971879  0.33366133  0.64281367     0.07700
H2877       H  0.28871957  0.33314457  0.61174938     0.07700
H2878       H  0.20654669  0.41335586  0.64255142     0.07680
H2879       H  0.20577446  0.41303773  0.61146965     0.07680
H2880       H  0.22711089  0.42948555  0.62628658     0.04450
C2881       C  0.23855489  0.26175330  0.63649602    -0.21350
C2882       C  0.21799596  0.25572270  0.62543079    -0.07920
C2883       C  0.21775100  0.23583367  0.61140859     0.12950
C2884       C  0.23747088  0.22269125  0.60927427    -0.21400
C2885       C  0.25660913  0.22646211  0.62315062    -0.07920
C2886       C  0.25783984  0.24703183  0.63595572     0.12940
C2887       C  0.27895635  0.25341872  0.64926142    -0.24750
H2888       H  0.23912418  0.27725513  0.64671587     0.14230
H2889       H  0.23690325  0.20772847  0.59825719     0.14260
C2890       C  0.19673565  0.22713347  0.59931644    -0.24700
H2891       H  0.27733099  0.27080214  0.65690332     0.04470
H2892       H  0.29406277  0.25343229  0.63766214     0.07700
H2893       H  0.28180621  0.24110794  0.66351514     0.07700
H2894       H  0.19014533  0.24092012  0.58832738     0.07680
H2895       H  0.18363994  0.22172608  0.61204081     0.07680
H2896       H  0.20028800  0.21205434  0.58818745     0.04450
C2897       C  0.11218943  0.38402049  0.49302581    -0.21350
C2898       C  0.12860895  0.37060343  0.48143166    -0.07920
C2899       C  0.14454100  0.35779523  0.49471543     0.12950
C2900       C  0.14344507  0.35834531  0.51887169    -0.21400
C2901       C  0.12711544  0.37174465  0.53050539    -0.07920
C2902       C  0.11104056  0.38442291  0.51730759     0.12940
C2903       C  0.09250104  0.39820328  0.52893083    -0.24750
H2904       H  0.10065615  0.39476473  0.48307302     0.14230
H2905       H  0.15501180  0.34761086  0.52880666     0.14260
C2906       C  0.16285264  0.34340406  0.48333597    -0.24700
H2907       H  0.08145592  0.40732135  0.51630249     0.04470
H2908       H  0.10037313  0.41116309  0.54037996     0.07700
H2909       H  0.08146257  0.38669979  0.53928235     0.07700
H2910       H  0.17458645  0.35445043  0.47327695     0.07680
H2911       H  0.15475253  0.33074725  0.47171090     0.07680
H2912       H  0.17335987  0.33384053  0.49609473     0.04450
C2913       C  0.01221475  0.25783874  0.62694123    -0.21350
C2914       C  0.03301850  0.25237618  0.63791985    -0.07920
C2915       C  0.03426745  0.23247863  0.65195087     0.12950
C2916       C  0.01562044  0.21773464  0.65266003    -0.21400
C2917       C  0.99608310  0.22147495  0.63913860    -0.07920
C2918       C  0.99365001  0.24256618  0.62729239     0.12940
C2919       C  0.97204027  0.24896858  0.61460781    -0.24750
H2920       H  0.01085961  0.27350636  0.61698045     0.14230
H2921       H  0.01708825  0.20219342  0.66280616     0.14260
C2922       C  0.05523210  0.22573152  0.66572575    -0.24700
H2923       H  0.97281791  0.26670803  0.60766209     0.04470
H2924       H  0.95715287  0.24809976  0.62645537     0.07700
H2925       H  0.96942109  0.23723647  0.59989074     0.07700
H2926       H  0.06038721  0.24006929  0.67707229     0.07680
H2927       H  0.06950083  0.22082227  0.65407862     0.07680
H2928       H  0.05205145  0.21062630  0.67690076     0.04450
C2929       C  0.62470999  0.34993946  0.25028144    -0.21350
C2930       C  0.62209004  0.36839990  0.23459506    -0.07920
C2931       C  0.61829191  0.39054817  0.24358644     0.12950
C2932       C  0.61692015  0.39351297  0.26762628    -0.21400
C2933       C  0.61938444  0.37498638  0.28317739    -0.07920
C2934       C  0.62334257  0.35291278  0.27423504     0.12940
C2935       C  0.62501333  0.33228933  0.28977656    -0.24750
H2936       H  0.62758941  0.33275766  0.24376618     0.14230
H2937       H  0.61340380  0.41049361  0.27438506     0.14260
C2938       C  0.61596689  0.41108457  0.22807232    -0.24700
H2939       H  0.62767050  0.31617602  0.27994141     0.04470
H2940       H  0.60895234  0.33052835  0.29983497     0.07700
H2941       H  0.63969156  0.33430196  0.30169725     0.07700
H2942       H  0.60091785  0.40895249  0.21664769     0.07680
H2943       H  0.63170464  0.41293532  0.21753814     0.07680
H2944       H  0.61348424  0.42717935  0.23797449     0.04450
C2945       C  0.50845610  0.26123063  0.13697001    -0.21350
C2946       C  0.53127518  0.25331841  0.13836079    -0.07920
C2947       C  0.53571343  0.22939175  0.14000076     0.12950
C2948       C  0.51745092  0.21441662  0.14049885    -0.21400
C2949       C  0.49470656  0.22202298  0.13907623    -0.07920
C2950       C  0.48997729  0.24573946  0.13729343     0.12940
C2951       C  0.46574813  0.25468775  0.13614785    -0.24750
H2952       H  0.50511028  0.27949697  0.13558112     0.14230
H2953       H  0.52126283  0.19621959  0.14133431     0.14260
C2954       C  0.55948108  0.21874407  0.14022711    -0.24700
H2955       H  0.46520371  0.27373895  0.13577698     0.04470
H2956       H  0.45601947  0.24880414  0.15142039     0.07700
H2957       H  0.45725831  0.24837940  0.12035805     0.07700
H2958       H  0.56869883  0.22359802  0.15613466     0.07680
H2959       H  0.56917230  0.22416392  0.12476183     0.07680
H2960       H  0.55908809  0.19969181  0.13997753     0.04450
C2961       C  0.51163323  0.38933153  0.12719379    -0.21350
C2962       C  0.52364194  0.37443407  0.14201046    -0.07920
C2963       C  0.51085184  0.35980612  0.15651032     0.12950
C2964       C  0.48673668  0.36051459  0.15603419    -0.21400
C2965       C  0.47467952  0.37519543  0.14112830    -0.07920
C2966       C  0.48737632  0.39018391  0.12692860     0.12940
C2967       C  0.47527211  0.40729998  0.11175376    -0.24750
H2968       H  0.52125089  0.39981159  0.11525389     0.14230
H2969       H  0.47714570  0.34991978  0.16790245     0.14260
C2970       C  0.52273922  0.34314618  0.17244322    -0.24700
H2971       H  0.48757691  0.41765676  0.10160940     0.04470
H2972       H  0.46484594  0.41921908  0.12239542     0.07700
H2973       H  0.46385298  0.39815102  0.09964227     0.07700
H2974       H  0.53429662  0.35264939  0.18414553     0.07680
H2975       H  0.53294471  0.33051698  0.16243964     0.07680
H2976       H  0.51031763  0.33344117  0.18308072     0.04450
C2977       C  0.60208072  0.23446219  0.00891451    -0.21350
C2978       C  0.62313242  0.22403397  0.00371449    -0.07920
C2979       C  0.64329920  0.23139620  0.01471119     0.12950
C2980       C  0.64167350  0.24798864  0.03199761    -0.21400
C2981       C  0.62038048  0.25723103  0.03834423    -0.07920
C2982       C  0.60036393  0.25081813  0.02637759     0.12940
C2983       C  0.57697693  0.25967295  0.03312485    -0.24750
H2984       H  0.58664805  0.22853269  0.00047423     0.14230
H2985       H  0.65693663  0.25314212  0.04120612     0.14260
C2986       C  0.66642802  0.22169750  0.00832777    -0.24700
H2987       H  0.56318685  0.25190453  0.02260260     0.04470
H2988       H  0.57611952  0.27852626  0.03062887     0.07700
H2989       H  0.57350739  0.25545970  0.05139495     0.07700
H2990       H  0.66955119  0.22443531  0.98972361     0.07680
H2991       H  0.66718596  0.20307318  0.01218229     0.07680
H2992       H  0.68044605  0.23012070  0.01799838     0.04450
C2993       C  0.25210233  0.13179979  0.74033378    -0.21350
C2994       C  0.24508577  0.12855978  0.71747401    -0.07920
C2995       C  0.22174137  0.12366473  0.71281373     0.12950
C2996       C  0.20639578  0.12241267  0.73090121    -0.21400
C2997       C  0.21301038  0.12651263  0.75361678    -0.07920
C2998       C  0.23629092  0.13085301  0.75856518     0.12940
C2999       C  0.24461484  0.13420485  0.78277811    -0.24750
H3000       H  0.26992045  0.13541828  0.74392099     0.14230
H3001       H  0.18861507  0.11902043  0.72688182     0.14260
C3002       C  0.21203708  0.12052516  0.68894876    -0.24700
H3003       H  0.26354108  0.13601662  0.78347857     0.04470
H3004       H  0.23984488  0.11916400  0.79344418     0.07700
H3005       H  0.23695915  0.15001718  0.79015569     0.07700
H3006       H  0.21987749  0.10519345  0.68084468     0.07680
H3007       H  0.21507977  0.13613016  0.67844644     0.07680
H3008       H  0.19323020  0.11768644  0.68902050     0.04450
C3009       C  0.14504919  0.03217402  0.74528706    -0.21350
C3010       C  0.12435575  0.03707571  0.75650501    -0.07920
C3011       C  0.10464346  0.02393834  0.75168662     0.12950
C3012       C  0.10599417  0.00673297  0.73506006    -0.21400
C3013       C  0.12627717  0.00286207  0.72279734    -0.07920
C3014       C  0.14627476  0.01510717  0.72843152     0.12940
C3015       C  0.16883965  0.01019918  0.71678831    -0.24750
H3016       H  0.16010478  0.04222964  0.74924028     0.14230
H3017       H  0.09068032  0.99732231  0.73049989     0.14260
C3018       C  0.08173048  0.02903597  0.76260720    -0.24700
H3019       H  0.18291295  0.02055869  0.72422250     0.04470
H3020       H  0.16775746  0.01436634  0.69825217     0.07700
H3021       H  0.17337370  0.99178164  0.71893427     0.07700
H3022       H  0.07666269  0.04711803  0.75912641     0.07680
H3023       H  0.08271262  0.02609263  0.78138667     0.07680
H3024       H  0.06801384  0.01782562  0.75576187     0.04450
C3025       C  0.14094498  0.23222709  0.75304469    -0.21350
C3026       C  0.12001304  0.22258495  0.75948443    -0.07920
C3027       C  0.09948937  0.22997953  0.74895756     0.12950
C3028       C  0.10058001  0.24596249  0.73101660    -0.21400
C3029       C  0.12170397  0.25455362  0.72368807    -0.07920
C3030       C  0.14212705  0.24795076  0.73500584     0.12940
C3031       C  0.16535069  0.25600715  0.72706731    -0.24750
H3032       H  0.15664418  0.22617968  0.76105398     0.14230
H3033       H  0.08503417  0.25128772  0.72226241     0.14260
C3034       C  0.07656638  0.22101779  0.75661060    -0.24700
H3035       H  0.17946657  0.24796653  0.73709288     0.04470
H3036       H  0.16668185  0.27485394  0.72920343     0.07700
H3037       H  0.16792762  0.25144415  0.70873609     0.07700
H3038       H  0.07417063  0.22456283  0.77518507     0.07680
H3039       H  0.07556621  0.20226929  0.75361295     0.07680
H3040       H  0.06224936  0.22933318  0.74710634     0.04450
C3041       C  0.03810128  0.12498776  0.73488509    -0.21350
C3042       C  0.03205531  0.13086498  0.75730799    -0.07920
C3043       C  0.00891455  0.13478522  0.76312965     0.12950
C3044       C  0.99233704  0.13407122  0.74565424    -0.21400
C3045       C  0.99880351  0.12939528  0.72293505    -0.07920
C3046       C  0.02187671  0.12399743  0.71762450     0.12940
C3047       C  0.02974009  0.11651044  0.69402565    -0.24750
H3048       H  0.05581901  0.12100744  0.73078483     0.14230
H3049       H  0.97451128  0.13765988  0.74956994     0.14260
C3050       C  0.00191047  0.14024803  0.78737465    -0.24700
H3051       H  0.04782250  0.11043536  0.69409215     0.04470
H3052       H  0.02884866  0.13108153  0.68178755     0.07700
H3053       H  0.01901496  0.10211191  0.68785300     0.07700
H3054       H  0.01088141  0.15589353  0.79331477     0.07680
H3055       H  0.00644959  0.12566951  0.79880014     0.07680
H3056       H  0.98315471  0.14331037  0.78877392     0.04450
C3057       C  0.73179830  0.71743078  0.64320448    -0.21350
C3058       C  0.75195385  0.72176194  0.63111544    -0.07920
C3059       C  0.75554231  0.74307965  0.62040432     0.12950
C3060       C  0.73767266  0.75929965  0.62061792    -0.21400
C3061       C  0.71682120  0.75409390  0.63132770    -0.07920
C3062       C  0.71410416  0.73335887  0.64351694     0.12940
C3063       C  0.69263730  0.72784001  0.65690402    -0.24750
H3064       H  0.72965417  0.70110525  0.65190369     0.14230
H3065       H  0.73963648  0.77558768  0.61184800     0.14260
C3066       C  0.77771879  0.74825855  0.60835571    -0.24700
H3067       H  0.69440248  0.71151670  0.66662794     0.04470
H3068       H  0.67784916  0.72588271  0.64513303     0.07700
H3069       H  0.68899476  0.74172287  0.66943272     0.07700
H3070       H  0.78061635  0.73568586  0.59434645     0.07680
H3071       H  0.79212414  0.74711944  0.62077043     0.07680
H3072       H  0.77758809  0.76576302  0.60078888     0.04450
C3073       C  0.70295182  0.52858124  0.62233580    -0.21350
C3074       C  0.70975546  0.50569068  0.62514412    -0.07920
C3075       C  0.73326307  0.50017896  0.62725207     0.12950
C3076       C  0.74933174  0.51809832  0.62747156    -0.21400
C3077       C  0.74219603  0.54110590  0.62569965    -0.07920
C3078       C  0.71867769  0.54633123  0.62247950     0.12940
C3079       C  0.70970544  0.57041109  0.61844244    -0.24750
H3080       H  0.68497499  0.53274219  0.61991602     0.14230
H3081       H  0.76740066  0.51420189  0.62950143     0.14260
C3082       C  0.74134156  0.47574165  0.62993810    -0.24700
H3083       H  0.69120513  0.57060782  0.61394394     0.04470
H3084       H  0.71906758  0.57849014  0.60397529     0.07700
H3085       H  0.71151596  0.58084931  0.63423279     0.07700
H3086       H  0.73684363  0.46572862  0.61441345     0.07680
H3087       H  0.73314332  0.46788805  0.64521627     0.07680
H3088       H  0.76022029  0.47469291  0.63221322     0.04450
C3089       C  0.75335367  0.63455259  0.74169653    -0.21350
C3090       C  0.74998826  0.61984204  0.72292244    -0.07920
C3091       C  0.73258175  0.60313364  0.72402561     0.12950
C3092       C  0.71724599  0.60365518  0.74243651    -0.21400
C3093       C  0.71851701  0.62067835  0.75942360    -0.07920
C3094       C  0.73771598  0.63534445  0.75994076     0.12940
C3095       C  0.74123963  0.65278701  0.77865608    -0.24750
H3096       H  0.76726751  0.64677311  0.74130629     0.14230
H3097       H  0.70312880  0.59164522  0.74264369     0.14260
C3098       C  0.72959109  0.58502050  0.70580106    -0.24700
H3099       H  0.75756045  0.66224187  0.77643528     0.04470
H3100       H  0.74190781  0.64403141  0.79558135     0.07700
H3101       H  0.72712354  0.66563121  0.77844063     0.07700
H3102       H  0.74604691  0.57577570  0.70300719     0.07680
H3103       H  0.72364582  0.59290240  0.68950953     0.07680
H3104       H  0.71656436  0.57214198  0.71084000     0.04450
C3105       C  0.73597439  0.65334432  0.53558772    -0.21350
C3106       C  0.75221480  0.63548144  0.53591499    -0.07920
C3107       C  0.75190245  0.61880647  0.51824711     0.12950
C3108       C  0.73375134  0.61901198  0.50249260    -0.21400
C3109       C  0.71583493  0.63508137  0.50425455    -0.07920
C3110       C  0.71771132  0.65336394  0.52003433     0.12940
C3111       C  0.70050093  0.67277865  0.52090779    -0.24750
H3112       H  0.73675114  0.66664611  0.54854025     0.14230
H3113       H  0.73266101  0.60541225  0.48986891     0.14260
C3114       C  0.76951656  0.59984150  0.51661628    -0.24700
H3115       H  0.70605665  0.68658489  0.53274715     0.04470
H3116       H  0.68372483  0.66657120  0.52721425     0.07700
H3117       H  0.69846754  0.68045364  0.50356880     0.07700
H3118       H  0.76875227  0.58880028  0.53212952     0.07680
H3119       H  0.78687835  0.60730464  0.51480896     0.07680
H3120       H  0.76654754  0.58865514  0.50149942     0.04450
C3121       C  0.70547076  0.22735669  0.11789806    -0.21350
C3122       C  0.71168448  0.24943919  0.12492164    -0.07920
C3123       C  0.73468320  0.25368400  0.13123459     0.12950
C3124       C  0.75033943  0.23523085  0.13180209    -0.21400
C3125       C  0.74347048  0.21278621  0.12642118    -0.07920
C3126       C  0.72065250  0.20894712  0.11892294     0.12940
C3127       C  0.71123791  0.18556315  0.11290813    -0.24750
H3128       H  0.68802868  0.22399090  0.11257746     0.14230
H3129       H  0.76786830  0.23825645  0.13709095     0.14260
C3130       C  0.74291760  0.27735226  0.13733537    -0.24700
H3131       H  0.69290050  0.18628906  0.10782656     0.04470
H3132       H  0.71230869  0.17397656  0.12803043     0.07700
H3133       H  0.72074316  0.17822702  0.09812400     0.07700
H3134       H  0.73458716  0.28331322  0.15337463     0.07680
H3135       H  0.73894984  0.28946094  0.12312556     0.07680
H3136       H  0.76172982  0.27761393  0.14023154     0.04450
C3137       C  0.73400653  0.12990742  0.00503965    -0.21350
C3138       C  0.71116503  0.12720969  0.01207181    -0.07920
C3139       C  0.70614520  0.12096559  0.03495407     0.12950
C3140       C  0.72401413  0.11897700  0.05047566    -0.21400
C3141       C  0.74670223  0.12298121  0.04392487    -0.07920
C3142       C  0.75203834  0.12787039  0.02088071     0.12940
C3143       C  0.77637385  0.13157510  0.01323651    -0.24750
H3144       H  0.73764910  0.13404945  0.98731196     0.14230
H3145       H  0.72015224  0.11442333  0.06810937     0.14260
C3146       C  0.68219595  0.11565490  0.04325570    -0.24700
H3147       H  0.77733251  0.13572114  0.99464890     0.04470
H3148       H  0.78664596  0.11577146  0.01631792     0.07700
H3149       H  0.78397221  0.14601246  0.02296765     0.07700
H3150       H  0.67441213  0.10223896  0.03227323     0.07680
H3151       H  0.67143446  0.13141052  0.04303656     0.07680
H3152       H  0.68213165  0.10913444  0.06117881     0.04450
C3153       C  0.73540974  0.99469827  0.13165855    -0.21350
C3154       C  0.71604904  0.99951240  0.14526735    -0.07920
C3155       C  0.71681822  0.01818007  0.16077819     0.12950
C3156       C  0.73548639  0.03303113  0.15994934    -0.21400
C3157       C  0.75306034  0.03030400  0.14370075    -0.07920
C3158       C  0.75393721  0.00994937  0.13056095     0.12940
C3159       C  0.77355358  0.00460161  0.11461072    -0.24750
H3160       H  0.73540117  0.97980152  0.12056276     0.14230
H3161       H  0.73543972  0.04794372  0.17101902     0.14260
C3162       C  0.69792238  0.02333210  0.17776794    -0.24700
H3163       H  0.77170199  0.98745919  0.10653922     0.04470
H3164       H  0.78991662  0.00457790  0.12434965     0.07700
H3165       H  0.77423376  0.01748085  0.10060225     0.07700
H3166       H  0.69414584  0.00780456  0.18811335     0.07680
H3167       H  0.68226951  0.02931463  0.16869396     0.07680
H3168       H  0.70277196  0.03719311  0.18986934     0.04450
C3169       C  0.14264448  0.51554319  0.36379887    -0.21350
C3170       C  0.12731501  0.52754430  0.37800968    -0.07920
C3171       C  0.11157337  0.51483334  0.39134277     0.12950
C3172       C  0.11205824  0.49058482  0.39072356    -0.21400
C3173       C  0.12738556  0.47862466  0.37641115    -0.07920
C3174       C  0.14299711  0.49140880  0.36297110     0.12940
C3175       C  0.16020655  0.47949974  0.34770651    -0.24750
H3176       H  0.15387970  0.52518571  0.35258885     0.14230
H3177       H  0.10087536  0.48091527  0.40195568     0.14260
C3178       C  0.09404533  0.52694997  0.40599297    -0.24700
H3179       H  0.17064420  0.49195416  0.33782629     0.04470
H3180       H  0.15111829  0.46833667  0.33530688     0.07700
H3181       H  0.17211236  0.46885856  0.35815779     0.07700
H3182       H  0.08267266  0.53769552  0.39505062     0.07680
H3183       H  0.10285475  0.53808366  0.41862051     0.07680
H3184       H  0.08317388  0.51462021  0.41555395     0.04450
C3185       C  0.26269575  0.61574131  0.35841691    -0.21350
C3186       C  0.27238285  0.62452720  0.37850526    -0.07920
C3187       C  0.25742155  0.63186594  0.39631783     0.12950
C3188       C  0.23335341  0.63101787  0.39327976    -0.21400
C3189       C  0.22368962  0.62229594  0.37306660    -0.07920
C3190       C  0.23875569  0.61444132  0.35548978     0.12940
C3191       C  0.22967597  0.60384473  0.33371938    -0.24750
H3192       H  0.27397425  0.60878727  0.34534027     0.14230
H3193       H  0.22208632  0.63769836  0.40649952     0.14260
C3194       C  0.26694807  0.64059148  0.41865972    -0.24700
H3195       H  0.24368968  0.59691942  0.32278882     0.04470
H3196       H  0.22032147  0.61679663  0.32336493     0.07700
H3197       H  0.21802865  0.58947881  0.33802114     0.07700
H3198       H  0.27821739  0.65550339  0.41532154     0.07680
H3199       H  0.27702702  0.62687270  0.42730234     0.07680
H3200       H  0.25312875  0.64614690  0.43056592     0.04450
C3201       C  0.23386777  0.62267488  0.26374928    -0.21350
C3202       C  0.21125591  0.62466441  0.25558717    -0.07920
C3203       C  0.20711760  0.62863023  0.23200532     0.12950
C3204       C  0.22558439  0.62931188  0.21714662    -0.21400
C3205       C  0.24805470  0.62606735  0.22491898    -0.07920
C3206       C  0.25250857  0.62327233  0.24848948     0.12940
C3207       C  0.27657777  0.62033253  0.25731367    -0.24750
H3208       H  0.23688541  0.62030693  0.28195125     0.14230
H3209       H  0.22235764  0.63236076  0.19905910     0.14260
C3210       C  0.18350375  0.63296962  0.22212762    -0.24700
H3211       H  0.27690205  0.61779928  0.27620814     0.04470
H3212       H  0.28678272  0.63582011  0.25322437     0.07700
H3213       H  0.28467669  0.60513159  0.24912390     0.07700
H3214       H  0.17502502  0.64733046  0.23138060     0.07680
H3215       H  0.17299097  0.61721997  0.22333600     0.07680
H3216       H  0.18415229  0.63775946  0.20368141     0.04450
C3217       C  0.14460650  0.51019309  0.23239904    -0.21350
C3218       C  0.12484445  0.49699172  0.22929318    -0.07920
C3219       C  0.10643760  0.49925927  0.24497499     0.12950
C3220       C  0.10744269  0.51633173  0.26188058    -0.21400
C3221       C  0.12610400  0.53132098  0.26313099    -0.07920
C3222       C  0.14551931  0.52733623  0.24917237     0.12940
C3223       C  0.16713455  0.54117302  0.25166970    -0.24750
H3224       H  0.15896853  0.50791810  0.22079381     0.14230
H3225       H  0.09274825  0.51917872  0.27292227     0.14260
C3226       C  0.08498104  0.48512919  0.24301536    -0.24700
H3227       H  0.18112951  0.53437969  0.24063244     0.04470
H3228       H  0.17311733  0.54048760  0.26974952     0.07700
H3229       H  0.16410055  0.55925505  0.24654823     0.07700
H3230       H  0.08928334  0.46665815  0.24501777     0.07680
H3231       H  0.07674826  0.48813757  0.22608789     0.07680
H3232       H  0.07226706  0.48963150  0.25648777     0.04450
C3233       C  0.00746982  0.65340598  0.23279912    -0.21350
C3234       C  0.99400312  0.63383650  0.22978148    -0.07920
C3235       C  0.99554915  0.61550996  0.24573258     0.12950
C3236       C  0.01212500  0.61644332  0.26298221    -0.21400
C3237       C  0.02740183  0.63480159  0.26421548    -0.07920
C3238       C  0.02420874  0.65416666  0.24994840     0.12940
C3239       C  0.03848750  0.67549189  0.25251797    -0.24750
H3240       H  0.00569815  0.66765211  0.22092993     0.14230
H3241       H  0.01449442  0.60177497  0.27423113     0.14260
C3242       C  0.98133406  0.59405963  0.24372371    -0.24700
H3243       H  0.03230652  0.68951285  0.24111795     0.04470
H3244       H  0.05659697  0.67197380  0.24793543     0.07700
H3245       H  0.03750097  0.68171270  0.27049660     0.07700
H3246       H  0.98454726  0.58566200  0.22691981     0.07680
H3247       H  0.96288566  0.59843633  0.24547521     0.07680
H3248       H  0.98556160  0.58136152  0.25733916     0.04450
C3249       C  0.13279079  0.73292533  0.22001023    -0.21350
C3250       C  0.12099218  0.75321417  0.22518383    -0.07920
C3251       C  0.11014755  0.75599812  0.24656939     0.12950
C3252       C  0.11038706  0.73755013  0.26209471    -0.21400
C3253       C  0.12101614  0.71672812  0.25616019    -0.07920
C3254       C  0.13298617  0.71458034  0.23524206     0.12940
C3255       C  0.14622678  0.69313621  0.22895541    -0.24750
H3256       H  0.14143610  0.73124420  0.20360136     0.14230
H3257       H  0.10174868  0.73909602  0.27849583     0.14260
C3258       C  0.09785878  0.77795952  0.25254435    -0.24700
H3259       H  0.15563373  0.69516399  0.21251031     0.04470
H3260       H  0.13439996  0.67846348  0.22689887     0.07700
H3261       H  0.15898665  0.68913586  0.24254167     0.07700
H3262       H  0.08392499  0.78125770  0.23996983     0.07680
H3263       H  0.11011019  0.79245329  0.25210484     0.07680
H3264       H  0.09016351  0.77717657  0.26996002     0.04450
C3265       C  0.13516096  0.75185167  0.02567031    -0.21350
C3266       C  0.11967641  0.74984110  0.04388606    -0.07920
C3267       C  0.10388531  0.73166711  0.04461790     0.12950
C3268       C  0.10465448  0.71512599  0.02748116    -0.21400
C3269       C  0.12080616  0.71642988  0.00984451    -0.07920
C3270       C  0.13600411  0.73510088  0.00848536     0.12940
C3271       C  0.15366820  0.73736373  0.98980618    -0.24750
H3272       H  0.14711737  0.76601423  0.02531076     0.14230
H3273       H  0.09291800  0.70076299  0.02809277     0.14260
C3274       C  0.08627545  0.72965228  0.06346665    -0.24700
H3275       H  0.17104022  0.73777275  0.99754902     0.04470
H3276       H  0.15070881  0.75360437  0.98023816     0.07700
H3277       H  0.15321392  0.72295963  0.97742812     0.07700
H3278       H  0.07547899  0.74538365  0.06380674     0.07680
H3279       H  0.09485593  0.72744453  0.08032146     0.07680
H3280       H  0.07484056  0.71471292  0.06084940     0.04450
C3281       C  0.20788412  0.73171840  0.11489987    -0.21350
C3282       C  0.21172203  0.75195896  0.12723680    -0.07920
C3283       C  0.23358027  0.75565232  0.13705173     0.12950
C3284       C  0.24980058  0.73770343  0.13674667    -0.21400
C3285       C  0.24464376  0.71629806  0.12699136    -0.07920
C3286       C  0.22372445  0.71374429  0.11480932     0.12940
C3287       C  0.21708129  0.69208064  0.10225353    -0.24750
H3288       H  0.19162313  0.72923710  0.10628128     0.14230
H3289       H  0.26613627  0.74006120  0.14522291     0.14260
C3290       C  0.23990594  0.77800510  0.14827139    -0.24700
H3291       H  0.20088366  0.69423571  0.09244314     0.04470
H3292       H  0.21414067  0.67792142  0.11465565     0.07700
H3293       H  0.23062014  0.68728328  0.08975006     0.07700
H3294       H  0.22931588  0.78083426  0.16382202     0.07680
H3295       H  0.23733084  0.79236389  0.13595979     0.07680
H3296       H  0.25815082  0.77813662  0.15370295     0.04450
C3297       C  0.01863440  0.74859696  0.15672391    -0.21350
C3298       C  0.02644836  0.75709148  0.13564066    -0.07920
C3299       C  0.01679874  0.74915291  0.11490043     0.12950
C3300       C  0.00023571  0.73204062  0.11576754    -0.21400
C3301       C  0.99372590  0.72233963  0.13671394    -0.07920
C3302       C  0.00218915  0.73120985  0.15749411     0.12940
C3303       C  0.99397226  0.72227838  0.18030066    -0.24750
H3304       H  0.02611306  0.75490100  0.17251318     0.14230
H3305       H  0.99359001  0.72499464  0.09989850     0.14260
C3306       C  0.02521801  0.75715303  0.09177150    -0.24700
H3307       H  0.00184685  0.73169140  0.19482955     0.04470
H3308       H  0.99846068  0.70385233  0.18215849     0.07700
H3309       H  0.97507230  0.72440137  0.18148120     0.07700
H3310       H  0.04390579  0.75380315  0.09026062     0.07680
H3311       H  0.02174235  0.77576899  0.08969307     0.07680
H3312       H  0.01657904  0.74808333  0.07745864     0.04450
C3313       C  0.60226976  0.24003134  0.36448841    -0.21350
C3314       C  0.61821527  0.22810822  0.37811927    -0.07920
C3315       C  0.63409046  0.24097679  0.39112613     0.12950
C3316       C  0.63297430  0.26526013  0.39095963    -0.21400
C3317       C  0.61691396  0.27712390  0.37732363    -0.07920
C3318       C  0.60135788  0.26417691  0.36400037     0.12940
C3319       C  0.58376651  0.27591576  0.34900621    -0.24750
H3320       H  0.59095597  0.23033189  0.35343938     0.14230
H3321       H  0.64430480  0.27499622  0.40194771     0.14260
C3322       C  0.65244890  0.22901700  0.40488411    -0.24700
H3323       H  0.57346628  0.26337001  0.33913067     0.04470
H3324       H  0.59251370  0.28736362  0.33658450     0.07700
H3325       H  0.57177978  0.28623467  0.35964391     0.07700
H3326       H  0.66363033  0.21876657  0.39331778     0.07680
H3327       H  0.64441287  0.21742356  0.41764753     0.07680
H3328       H  0.66338689  0.24143047  0.41422000     0.04450
C3329       C  0.51505426  0.15187859  0.38177913    -0.21350
C3330       C  0.52341506  0.12947404  0.38280638    -0.07920
C3331       C  0.50743003  0.11114700  0.38397248     0.12950
C3332       C  0.48358971  0.11577848  0.38412215    -0.21400
C3333       C  0.47517692  0.13831005  0.38273961    -0.07920
C3334       C  0.49138568  0.15658676  0.38146445     0.12940
C3335       C  0.48415267  0.18133608  0.37866795    -0.24750
H3336       H  0.52717023  0.16577525  0.37982805     0.14230
H3337       H  0.47152883  0.10179078  0.38562352     0.14260
C3338       C  0.51553003  0.08656594  0.38523625    -0.24700
H3339       H  0.49893937  0.19245880  0.37443301     0.04470
H3340       H  0.47674843  0.18793510  0.39490145     0.07700
H3341       H  0.47155848  0.18301984  0.36447845     0.07700
H3342       H  0.52711786  0.08433049  0.40019098     0.07680
H3343       H  0.52479456  0.08176119  0.36932504     0.07680
H3344       H  0.50099362  0.07451532  0.38725219     0.04450
C3345       C  0.63361140  0.21528056  0.23841979    -0.21350
C3346       C  0.62115499  0.22012663  0.25832159    -0.07920
C3347       C  0.61104141  0.24188781  0.26154431     0.12950
C3348       C  0.61242307  0.25806746  0.24370418    -0.21400
C3349       C  0.62374581  0.25251736  0.22318766    -0.07920
C3350       C  0.63517313  0.23126343  0.22080362     0.12940
C3351       C  0.64919299  0.22537104  0.19980603    -0.24750
H3352       H  0.64188436  0.19866743  0.23652449     0.14230
H3353       H  0.60411335  0.27466538  0.24543591     0.14260
C3354       C  0.59834297  0.24761870  0.28329877    -0.24700
H3355       H  0.65804966  0.20854221  0.20164529     0.04470
H3356       H  0.66247173  0.23865411  0.19702205     0.07700
H3357       H  0.63801777  0.22431808  0.18446219     0.07700
H3358       H  0.61012914  0.24615130  0.29819631     0.07680
H3359       H  0.58388264  0.23555312  0.28566729     0.07680
H3360       H  0.59130845  0.26537030  0.28289889     0.04450
C3361       C  0.70744328  0.10888692  0.23767166    -0.21350
C3362       C  0.71164897  0.12042481  0.25826128    -0.07920
C3363       C  0.73395277  0.12878433  0.26268598     0.12950
C3364       C  0.75055896  0.12759424  0.24521583    -0.21400
C3365       C  0.74534168  0.11836131  0.22359607    -0.07920
C3366       C  0.72355772  0.10804030  0.22014261     0.12940
C3367       C  0.71609144  0.09691796  0.19792448    -0.24750
H3368       H  0.69073462  0.10150087  0.23455513     0.14230
H3369       H  0.76737976  0.13478823  0.24815930     0.14260
C3370       C  0.74042324  0.13917334  0.28540353    -0.24700
H3371       H  0.69878427  0.08918186  0.19917216     0.04470
H3372       H  0.72811107  0.08286116  0.19334022     0.07700
H3373       H  0.71511595  0.10992702  0.18399665     0.07700
H3374       H  0.73677362  0.12681911  0.29945266     0.07680
H3375       H  0.73072496  0.15534848  0.28819356     0.07680
H3376       H  0.75894705  0.14337463  0.28615832     0.04450
C3377       C  0.53366676  0.11966348  0.23825637    -0.21350
C3378       C  0.52833334  0.12823185  0.26000818    -0.07920
C3379       C  0.50581905  0.13543569  0.26514680     0.12950
C3380       C  0.48934704  0.13539689  0.24753366    -0.21400
C3381       C  0.49532882  0.12829274  0.22531073    -0.07920
C3382       C  0.51747936  0.11946773  0.22082619     0.12940
C3383       C  0.52423254  0.10948485  0.19784123    -0.24750
H3384       H  0.55085491  0.11338140  0.23475912     0.14230
H3385       H  0.47210756  0.14158689  0.25086356     0.14260
C3386       C  0.49951852  0.14383442  0.28873480    -0.24700
H3387       H  0.54156872  0.10151606  0.19833922     0.04470
H3388       H  0.52468053  0.12310537  0.18454816     0.07700
H3389       H  0.51189746  0.09597670  0.19277287     0.07700
H3390       H  0.51024869  0.15880685  0.29331590     0.07680
H3391       H  0.50239067  0.12992954  0.30147726     0.07680
H3392       H  0.48123192  0.14916173  0.28966633     0.04450
C3393       C  0.64401849  0.01181310  0.23391265    -0.21350
C3394       C  0.62388429  0.99930625  0.23035195    -0.07920
C3395       C  0.60439999  0.00361800  0.24415645     0.12950
C3396       C  0.60520278  0.02139239  0.26020134    -0.21400
C3397       C  0.62461985  0.03526960  0.26216943    -0.07920
C3398       C  0.64462431  0.02987825  0.24967217     0.12940
C3399       C  0.66650993  0.04313035  0.25276736    -0.24750
H3400       H  0.65895883  0.00820797  0.22342705     0.14230
H3401       H  0.58994901  0.02558420  0.27001899     0.14260
C3402       C  0.58214557  0.99100313  0.24088210    -0.24700
H3403       H  0.68076857  0.03564556  0.24253923     0.04470
H3404       H  0.67164266  0.04280083  0.27111866     0.07700
H3405       H  0.66415497  0.06115187  0.24709080     0.07700
H3406       H  0.58474624  0.97244630  0.24433775     0.07680
H3407       H  0.57580789  0.99351612  0.22307176     0.07680
H3408       H  0.56859046  0.99728806  0.25273579     0.04450
C3409       C  0.12823101  0.23768347  0.36936528    -0.21350
C3410       C  0.12555506  0.23022632  0.39207874    -0.07920
C3411       C  0.12457386  0.24726512  0.40976891     0.12950
C3412       C  0.12587088  0.27072738  0.40421573    -0.21400
C3413       C  0.12873464  0.27809250  0.38165953    -0.07920
C3414       C  0.12996954  0.26129201  0.36395356     0.12940
C3415       C  0.13265165  0.26817138  0.33915253    -0.24750
H3416       H  0.12869312  0.22502976  0.35575733     0.14230
H3417       H  0.12569452  0.28344719  0.41777328     0.14260
C3418       C  0.12301695  0.24120751  0.43491196    -0.24700
H3419       H  0.13158923  0.25313737  0.32751543     0.04470
H3420       H  0.14957980  0.27622099  0.33631644     0.07700
H3421       H  0.11883405  0.28043102  0.33430641     0.07700
H3422       H  0.13663966  0.22862804  0.43949145     0.07680
H3423       H  0.10585118  0.23419924  0.43882029     0.07680
H3424       H  0.12526186  0.25642345  0.44613055     0.04450
C3425       C  0.23767403  0.14619658  0.40445825    -0.21350
C3426       C  0.22411598  0.13602738  0.38729196    -0.07920
C3427       C  0.23538527  0.12501343  0.36884047     0.12950
C3428       C  0.25966768  0.12461408  0.36795959    -0.21400
C3429       C  0.27316124  0.13440545  0.38544232    -0.07920
C3430       C  0.26182026  0.14588939  0.40353515     0.12940
C3431       C  0.27527232  0.15848190  0.42158109    -0.24750
H3432       H  0.22923525  0.15404933  0.41907165     0.14230
H3433       H  0.26819740  0.11701664  0.35326156     0.14260
C3434       C  0.22179332  0.11326243  0.35039259    -0.24700
H3435       H  0.26387080  0.16696024  0.43427560     0.04470
H3436       H  0.28581650  0.17203913  0.41343922     0.07700
H3437       H  0.28668441  0.14625706  0.43080373     0.07700
H3438       H  0.21030160  0.12590811  0.34186195     0.07680
H3439       H  0.21129811  0.09939244  0.35804639     0.07680
H3440       H  0.23310641  0.10551036  0.33713785     0.04450
C3441       C  0.14742481  0.22739255  0.51351454    -0.21350
C3442       C  0.12652377  0.22286617  0.50271965    -0.07920
C3443       C  0.10750891  0.23760183  0.50648922     0.12950
C3444       C  0.10929436  0.25489749  0.52298448    -0.21400
C3445       C  0.12946168  0.25766647  0.53567019    -0.07920
C3446       C  0.14921533  0.24504169  0.52961916     0.12940
C3447       C  0.17205389  0.25016705  0.54009976    -0.24750
H3448       H  0.16220217  0.21661535  0.50985481     0.14230
H3449       H  0.09428440  0.26509016  0.52723687     0.14260
C3450       C  0.08476620  0.23422430  0.49471955    -0.24700
H3451       H  0.18584505  0.23883345  0.53329109     0.04470
H3452       H  0.17085690  0.24749321  0.55863388     0.07700
H3453       H  0.17671481  0.26827745  0.53658244     0.07700
H3454       H  0.07807966  0.21685179  0.49856825     0.07680
H3455       H  0.08678930  0.23639552  0.47592701     0.07680
H3456       H  0.07173688  0.24693006  0.50050973     0.04450
C3457       C  0.25730832  0.13678580  0.51601232    -0.21350
C3458       C  0.25176443  0.13169394  0.53887602    -0.07920
C3459       C  0.22929590  0.12481294  0.54469974     0.12950
C3460       C  0.21257144  0.12486449  0.52782218    -0.21400
C3461       C  0.21760035  0.13120965  0.50526392    -0.07920
C3462       C  0.24028371  0.13651594  0.49892932     0.12940
C3463       C  0.24630884  0.14253358  0.47457442    -0.24750
H3464       H  0.27472721  0.14150227  0.51168793     0.14230
H3465       H  0.19526587  0.11988629  0.53234355     0.14260
C3466       C  0.22269624  0.11683497  0.56851116    -0.24700
H3467       H  0.26477125  0.14671502  0.47284404     0.04470
H3468       H  0.23610733  0.15766213  0.46893173     0.07700
H3469       H  0.24260177  0.12781112  0.46312659     0.07700
H3470       H  0.22303127  0.13136953  0.58076147     0.07680
H3471       H  0.23457465  0.10304807  0.57432072     0.07680
H3472       H  0.20506016  0.10978218  0.56897987     0.04450
C3473       C  0.02017523  0.11322266  0.54898294    -0.21350
C3474       C  0.99874155  0.12235751  0.54289658    -0.07920
C3475       C  0.99501947  0.12955641  0.52001311     0.12950
C3476       C  0.01348413  0.12884616  0.50442943    -0.21400
C3477       C  0.03556359  0.12182703  0.51143124    -0.07920
C3478       C  0.03877891  0.11379204  0.53421446     0.12940
C3479       C  0.06176421  0.10706369  0.54423636    -0.24750
H3480       H  0.02310747  0.10693260  0.56623677     0.14230
H3481       H  0.01085164  0.13470261  0.48695916     0.14260
C3482       C  0.97196068  0.13802950  0.51190581    -0.24700
H3483       H  0.06056990  0.10151576  0.56244225     0.04470
H3484       H  0.07356228  0.12193161  0.54383596     0.07700
H3485       H  0.06905611  0.09246496  0.53463727     0.07700
H3486       H  0.96731985  0.15419948  0.52082258     0.07680
H3487       H  0.95875714  0.12481965  0.51533981     0.07680
H3488       H  0.97194416  0.14164080  0.49318294     0.04450
C3489       C  0.14028359  0.01875573  0.50353848    -0.21350
C3490       C  0.12185404  0.03424366  0.50248900    -0.07920
C3491       C  0.10225347  0.03034122  0.51611400     0.12950
C3492       C  0.10294287  0.01311708  0.53284614    -0.21400
C3493       C  0.12249254  0.99935455  0.53580525    -0.07920
C3494       C  0.14090132  0.00125150  0.52005725     0.12940
C3495       C  0.16192416  0.98614111  0.52140582    -0.24750
H3496       H  0.15503933  0.02140120  0.49256420     0.14230
H3497       H  0.08847294  0.01099301  0.54431628     0.14260
C3498       C  0.08059141  0.04415348  0.51304263    -0.24700
H3499       H  0.17456435  0.99037018  0.50781360     0.04470
H3500       H  0.15700410  0.96792103  0.51908992     0.07700
H3501       H  0.17052515  0.98840656  0.53823337     0.07700
H3502       H  0.07465715  0.04284908  0.49499826     0.07680
H3503       H  0.08372523  0.06228587  0.51725353     0.07680
H3504       H  0.06661865  0.03800729  0.52439833     0.04450
C3505       C  0.86020941  0.77042845  0.64121897    -0.21350
C3506       C  0.87687561  0.77689830  0.62540165    -0.07920
C3507       C  0.89057447  0.75905474  0.61525431     0.12950
C3508       C  0.88564537  0.73567797  0.61958622    -0.21400
C3509       C  0.86784871  0.72916216  0.63422468    -0.07920
C3510       C  0.85561151  0.74716001  0.64601481     0.12940
C3511       C  0.83742900  0.74261953  0.66389558    -0.24750
H3512       H  0.85016105  0.78375890  0.64948097     0.14230
H3513       H  0.89554745  0.72237434  0.61110470     0.14260
C3514       C  0.91087820  0.76412240  0.60007606    -0.24700
H3515       H  0.83140459  0.75863242  0.67234303     0.04470
H3516       H  0.84445996  0.73135711  0.67761176     0.07700
H3517       H  0.82214244  0.73478369  0.65584125     0.07700
H3518       H  0.92283604  0.77579613  0.60909126     0.07680
H3519       H  0.90515141  0.77192246  0.58370879     0.07680
H3520       H  0.92061580  0.74831307  0.59559492     0.04450
C3521       C  0.75715154  0.88768269  0.61053362    -0.21350
C3522       C  0.77352182  0.87702131  0.62524864    -0.07920
C3523       C  0.76515536  0.86452980  0.64416597     0.12950
C3524       C  0.74122125  0.86239039  0.64727454    -0.21400
C3525       C  0.72494796  0.87219355  0.63194877    -0.07920
C3526       C  0.73325796  0.88540828  0.61356094     0.12940
C3527       C  0.71716501  0.89646352  0.59657887    -0.24750
H3528       H  0.76298023  0.89766916  0.59600295     0.14230
H3529       H  0.73518821  0.85238168  0.66171824     0.14260
C3530       C  0.78119750  0.85316661  0.66096962    -0.24700
H3531       H  0.72654153  0.90600657  0.58304034     0.04470
H3532       H  0.70573457  0.90881004  0.60556906     0.07700
H3533       H  0.70669775  0.88312037  0.58804180     0.07700
H3534       H  0.79226947  0.86627703  0.66908948     0.07680
H3535       H  0.79200917  0.84028812  0.65196389     0.07680
H3536       H  0.77176087  0.84416380  0.67483303     0.04450
C3537       C  0.98621061  0.89991703  0.61648903    -0.21350
C3538       C  0.97543277  0.88251901  0.62905746    -0.07920
C3539       C  0.98942732  0.86585064  0.64007948     0.12950
C3540       C  0.01363775  0.86758813  0.63910827    -0.21400
C3541       C  0.02435784  0.88511693  0.62653098    -0.07920
C3542       C  0.01025421  0.90145579  0.61511695     0.12940
C3543       C  0.02059353  0.92054697  0.60107793    -0.24750
H3544       H  0.97567284  0.91188625  0.60682554     0.14230
H3545       H  0.02420131  0.85557028  0.64868555     0.14260
C3546       C  0.97872129  0.84605303  0.65265730    -0.24700
H3547       H  0.00724487  0.93105177  0.59234423     0.04470
H3548       H  0.03200179  0.91316001  0.58771497     0.07700
H3549       H  0.03060951  0.93221321  0.61218574     0.07700
H3550       H  0.96839531  0.83563257  0.64058445     0.07680
H3551       H  0.96742070  0.85267112  0.66650301     0.07680
H3552       H  0.99188168  0.83466197  0.66053671     0.04450
C3553       C  0.86578926  0.99139398  0.64435364    -0.21350
C3554       C  0.88072243  0.97884683  0.63004508    -0.07920
C3555       C  0.89525055  0.99123748  0.61507898     0.12950
C3556       C  0.89470528  0.01542181  0.61490574    -0.21400
C3557       C  0.87973487  0.02801508  0.62903627    -0.07920
C3558       C  0.86550339  0.01572845  0.64436895     0.12940
C3559       C  0.85026896  0.02835815  0.66099296    -0.24750
H3560       H  0.85379971  0.98212076  0.65507332     0.14230
H3561       H  0.90661203  0.02466011  0.60406674     0.14260
C3562       C  0.91130272  0.97884062  0.59895943    -0.24700
H3563       H  0.84011532  0.01636019  0.67171037     0.04470
H3564       H  0.83819306  0.03960845  0.65140128     0.07700
H3565       H  0.86083712  0.03904736  0.67261412     0.07700
H3566       H  0.90143700  0.96829485  0.58662561     0.07680
H3567       H  0.92298305  0.96751699  0.60895298     0.07680
H3568       H  0.92192755  0.99097307  0.58888111     0.04450
C3569       C  0.87954447  0.13523325  0.24658419    -0.21350
C3570       C  0.86630613  0.11994456  0.23353220    -0.07920
C3571       C  0.85354672  0.10297479  0.24516500     0.12950
C3572       C  0.85453185  0.10147671  0.26927752    -0.21400
C3573       C  0.86745325  0.11692758  0.28240203    -0.07920
C3574       C  0.88054133  0.13368111  0.27080597     0.12940
C3575       C  0.89590361  0.14958302  0.28397459    -0.24750
H3576       H  0.88867251  0.14882242  0.23783393     0.14230
H3577       H  0.84530191  0.08793162  0.27799530     0.14260
C3578       C  0.83857059  0.08656589  0.23207254    -0.24700
H3579       H  0.90501804  0.16164001  0.27241329     0.04470
H3580       H  0.90895076  0.13945470  0.29356324     0.07700
H3581       H  0.88554499  0.15979231  0.29629412     0.07700
H3582       H  0.84913606  0.07679826  0.21955914     0.07680
H3583       H  0.82499246  0.09618729  0.22271779     0.07680
H3584       H  0.83005863  0.07409111  0.24365048     0.04450
C3585       C  0.76513498  0.13609430  0.36902360    -0.21350
C3586       C  0.77163678  0.11825706  0.38369392    -0.07920
C3587       C  0.75385847  0.10639917  0.39587060     0.12950
C3588       C  0.73061056  0.11126651  0.39123424    -0.21400
C3589       C  0.72414022  0.12801073  0.37536048    -0.07920
C3590       C  0.74186929  0.14141248  0.36492326     0.12940
C3591       C  0.73686768  0.16172968  0.34956763    -0.24750
H3592       H  0.77838203  0.14573535  0.36032574     0.14230
H3593       H  0.71733495  0.10149159  0.39973839     0.14260
C3594       C  0.75869849  0.08860579  0.41412505    -0.24700
H3595       H  0.75266178  0.17129714  0.34510486     0.04470
H3596       H  0.72515433  0.17390785  0.35844006     0.07700
H3597       H  0.72924949  0.15597684  0.33315870     0.07700
H3598       H  0.76970120  0.09604507  0.42771920     0.07680
H3599       H  0.76707822  0.07335751  0.40645849     0.07680
H3600       H  0.74279296  0.08248140  0.42255802     0.04450
C3601       C  0.98182333  0.14245543  0.39170492    -0.21350
C3602       C  0.97472038  0.12381770  0.37848945    -0.07920
C3603       C  0.99227434  0.11055374  0.36703031     0.12950
C3604       C  0.01565789  0.11473045  0.37133882    -0.21400
C3605       C  0.02260631  0.13189580  0.38629334    -0.07920
C3606       C  0.00534514  0.14689901  0.39549795     0.12940
C3607       C  0.01130761  0.16797144  0.40922730    -0.24750
H3608       H  0.96891962  0.15323615  0.39970614     0.14230
H3609       H  0.02864727  0.10371279  0.36377605     0.14260
C3610       C  0.98719636  0.09150085  0.35023220    -0.24700
H3611       H  0.99607168  0.17911005  0.41215568     0.04470
H3612       H  0.02417810  0.17832191  0.39980858     0.07700
H3613       H  0.01795993  0.16308231  0.42637385     0.07700
H3614       H  0.97570768  0.09792647  0.33642893     0.07680
H3615       H  0.97948983  0.07666614  0.35925811     0.07680
H3616       H  0.00294765  0.08490894  0.34172277     0.04450
C3617       C  0.85508225  0.11979248  0.49874679    -0.21350
C3618       C  0.87109888  0.12868048  0.48275070    -0.07920
C3619       C  0.88972675  0.14121718  0.49120232     0.12950
C3620       C  0.89274815  0.14305536  0.51509903    -0.21400
C3621       C  0.87791280  0.13234372  0.53121246    -0.07920
C3622       C  0.85831722  0.12125998  0.52270396     0.12940
C3623       C  0.84112574  0.11044552  0.53856166    -0.24750
H3624       H  0.84032614  0.11051787  0.49244082     0.14230
H3625       H  0.90759906  0.15233472  0.52108373     0.14260
C3626       C  0.90712653  0.15163743  0.47527066    -0.24700
H3627       H  0.82670632  0.10263518  0.52895816     0.04470
H3628       H  0.83388084  0.12367130  0.55022974     0.07700
H3629       H  0.84951332  0.09668889  0.54879343     0.07700
H3630       H  0.89854905  0.16416442  0.46369180     0.07680
H3631       H  0.91547674  0.13797912  0.46491077     0.07680
H3632       H  0.92075573  0.16081773  0.48480504     0.04450
C3633       C  0.90246196  0.99998217  0.48847188    -0.21350
C3634       C  0.88235061  0.01282566  0.48501236    -0.07920
C3635       C  0.86391910  0.01054947  0.50067118     0.12950
C3636       C  0.86511683  0.99344329  0.51754518    -0.21400
C3637       C  0.88396018  0.97846452  0.51876696    -0.07920
C3638       C  0.90355068  0.98282486  0.50528098     0.12940
C3639       C  0.92546571  0.96930315  0.50829424    -0.24750
H3640       H  0.91688984  0.00240279  0.47701928     0.14230
H3641       H  0.85033552  0.99040241  0.52838613     0.14260
C3642       C  0.84218561  0.02455662  0.49868857    -0.24700
H3643       H  0.93949452  0.97629312  0.49751986     0.04470
H3644       H  0.92304056  0.95116501  0.50324173     0.07700
H3645       H  0.93103305  0.97011619  0.52650031     0.07700
H3646       H  0.83380904  0.02126395  0.48191677     0.07680
H3647       H  0.84617197  0.04307431  0.50037646     0.07680
H3648       H  0.82966935  0.02017960  0.51234990     0.04450
C3649       C  0.09337412  0.87440304  0.26609017    -0.21350
C3650       C  0.11251046  0.87488995  0.28100111    -0.07920
C3651       C  0.13458309  0.87533758  0.27117411     0.12950
C3652       C  0.13690988  0.87468338  0.24702246    -0.21400
C3653       C  0.11774436  0.87402209  0.23220084    -0.07920
C3654       C  0.09570126  0.87384244  0.24201432     0.12940
C3655       C  0.07465518  0.87200687  0.22718620    -0.24750
H3656       H  0.07628518  0.87434531  0.27338790     0.14230
H3657       H  0.15393565  0.87412334  0.23959186     0.14260
C3658       C  0.15561505  0.87702535  0.28598359    -0.24700
H3659       H  0.05870204  0.87182929  0.23758337     0.04470
H3660       H  0.07536526  0.85589152  0.21705639     0.07700
H3661       H  0.07375326  0.88688212  0.21530052     0.07700
H3662       H  0.15672403  0.86187915  0.29749843     0.07680
H3663       H  0.15475210  0.89290788  0.29646564     0.07680
H3664       H  0.17151932  0.87760830  0.27553397     0.04450
C3665       C  0.09725087  0.76095232  0.38861410    -0.21350
C3666       C  0.11304236  0.77709022  0.37958252    -0.07920
C3667       C  0.13295301  0.76848617  0.36881493     0.12950
C3668       C  0.13617200  0.74450864  0.36694807    -0.21400
C3669       C  0.12005269  0.72848709  0.37540933    -0.07920
C3670       C  0.10044208  0.73701498  0.38665107     0.12940
C3671       C  0.08235747  0.72109807  0.39577772    -0.24750
H3672       H  0.08183532  0.76701065  0.39706596     0.14230
H3673       H  0.15138825  0.73820671  0.35829068     0.14260
C3674       C  0.15079104  0.78430379  0.35909555    -0.24700
H3675       H  0.06787082  0.73065455  0.40372080     0.04470
H3676       H  0.08990744  0.70968875  0.40907951     0.07700
H3677       H  0.07535923  0.71055783  0.38158538     0.07700
H3678       H  0.15778153  0.79529728  0.37293638     0.07680
H3679       H  0.14306023  0.79521900  0.34548485     0.07680
H3680       H  0.16531955  0.77465575  0.35134667     0.04450
C3681       C  0.13787742  0.99097083  0.37572201    -0.21350
C3682       C  0.12219045  0.97892964  0.38948486    -0.07920
C3683       C  0.10662059  0.99186324  0.40306308     0.12950
C3684       C  0.10709498  0.01605803  0.40260589    -0.21400
C3685       C  0.12250249  0.02812705  0.38865610    -0.07920
C3686       C  0.13852124  0.01529409  0.37554827     0.12940
C3687       C  0.15645168  0.02734679  0.36151023    -0.24750
H3688       H  0.14917787  0.98133838  0.36448590     0.14230
H3689       H  0.09570726  0.02568794  0.41375973     0.14260
C3690       C  0.08923543  0.98005629  0.41808178    -0.24700
H3691       H  0.16753769  0.01498757  0.35209046     0.04470
H3692       H  0.16755790  0.03773889  0.37289380     0.07700
H3693       H  0.14801664  0.03881597  0.34879999     0.07700
H3694       H  0.09816656  0.96842520  0.43030235     0.07680
H3695       H  0.07720324  0.96993176  0.40745907     0.07680
H3696       H  0.07891493  0.99255098  0.42816258     0.04450
C3697       C  0.01042358  0.99875894  0.39344384    -0.21350
C3698       C  0.00459841  0.97612021  0.38783618    -0.07920
C3699       C  0.98194495  0.97075647  0.38116987     0.12950
C3700       C  0.96534861  0.98771674  0.38215995    -0.21400
C3701       C  0.97057716  0.00989455  0.38935113    -0.07920
C3702       C  0.99345933  0.01598773  0.39415290     0.12940
C3703       C  0.00030051  0.04001426  0.40053037    -0.24750
H3704       H  0.02798360  0.00282016  0.39789464     0.14230
H3705       H  0.94789640  0.98351774  0.37739274     0.14260
C3706       C  0.97487525  0.94732111  0.37261345    -0.24700
H3707       H  0.00838374  0.03991619  0.41777348     0.04470
H3708       H  0.98553583  0.05206311  0.40097023     0.07700
H3709       H  0.01285577  0.04655773  0.38781530     0.07700
H3710       H  0.97498695  0.93467030  0.38685471     0.07680
H3711       H  0.98655740  0.94159752  0.35869368     0.07680
H3712       H  0.95720110  0.94746733  0.36553285     0.04450
C3713       C  0.11021853  0.89988012  0.49345334    -0.21350
C3714       C  0.12282569  0.88261397  0.48230925    -0.07920
C3715       C  0.13453520  0.86617077  0.49597378     0.12950
C3716       C  0.13408056  0.86792044  0.52021801    -0.21400
C3717       C  0.12140618  0.88525384  0.53129550    -0.07920
C3718       C  0.10941452  0.90144889  0.51756176     0.12940
C3719       C  0.09538920  0.92038156  0.52839174    -0.24750
H3720       H  0.10008968  0.91169414  0.48317830     0.14230
H3721       H  0.14408024  0.85603318  0.53052908     0.14260
C3722       C  0.14727461  0.84657898  0.48488518    -0.24700
H3723       H  0.08630552  0.93091664  0.51530960     0.04470
H3724       H  0.10657424  0.93202148  0.53834921     0.07700
H3725       H  0.08235219  0.91284135  0.54000115     0.07700
H3726       H  0.16067140  0.85342493  0.47326044     0.07680
H3727       H  0.13521123  0.83592481  0.47480550     0.07680
H3728       H  0.15571614  0.83535590  0.49782856     0.04450
C3729       C  0.00861217  0.88984846  0.50072461    -0.21350
C3730       C  0.00273742  0.88469771  0.47794054    -0.07920
C3731       C  0.98002136  0.87843334  0.47237989     0.12950
C3732       C  0.96347066  0.87908539  0.48935846    -0.21400
C3733       C  0.96882914  0.88544053  0.51179475    -0.07920
C3734       C  0.99169519  0.89016943  0.51795814     0.12940
C3735       C  0.99800857  0.89607767  0.54228200    -0.24750
H3736       H  0.02619465  0.89410779  0.50486776     0.14230
H3737       H  0.94601846  0.87449633  0.48501493     0.14260
C3738       C  0.97289574  0.87048205  0.44872791    -0.24700
H3739       H  0.01659812  0.89971130  0.54397308     0.04470
H3740       H  0.99386073  0.88151000  0.55382128     0.07700
H3741       H  0.98829156  0.91151501  0.54788991     0.07700
H3742       H  0.98440440  0.85643995  0.44283728     0.07680
H3743       H  0.97327472  0.88496236  0.43636666     0.07680
H3744       H  0.95512344  0.86376751  0.44857701     0.04450
C3745       C  0.75176786  0.85953471  0.49513430    -0.21350
C3746       C  0.74588410  0.87863697  0.48169545    -0.07920
C3747       C  0.75868994  0.89906686  0.48330261     0.12950
C3748       C  0.77742925  0.89976715  0.49815709    -0.21400
C3749       C  0.78377530  0.88044768  0.51092628    -0.07920
C3750       C  0.77067467  0.86028393  0.50994804     0.12940
C3751       C  0.77691321  0.83962052  0.52421993    -0.24750
H3752       H  0.74208313  0.84382759  0.49340061     0.14230
H3753       H  0.78774560  0.91515808  0.49917060     0.14260
C3754       C  0.75352565  0.91964981  0.46838034    -0.24700
H3755       H  0.76477859  0.82528354  0.52146102     0.04470
H3756       H  0.77653374  0.84426288  0.54269829     0.07700
H3757       H  0.79439071  0.83355134  0.51963232     0.07700
H3758       H  0.73601856  0.92617924  0.47208495     0.07680
H3759       H  0.75474400  0.91482747  0.44998128     0.07680
H3760       H  0.76574400  0.93385279  0.47147830     0.04450
C3761       C  0.63356328  0.85527536  0.49313213    -0.21350
C3762       C  0.62548631  0.87583957  0.48370450    -0.07920
C3763       C  0.61970211  0.89412198  0.49876623     0.12950
C3764       C  0.62142227  0.89110024  0.52278778    -0.21400
C3765       C  0.62978699  0.87052000  0.53216186    -0.07920
C3766       C  0.63628461  0.85255387  0.51692070     0.12940
C3767       C  0.64670792  0.83023918  0.52516551    -0.24750
H3768       H  0.63943808  0.84175216  0.48174891     0.14230
H3769       H  0.61561884  0.90457429  0.53424284     0.14260
C3770       C  0.61169706  0.91690277  0.48938925    -0.24700
H3771       H  0.66340373  0.82737441  0.51645231     0.04470
H3772       H  0.63510811  0.81582100  0.52090891     0.07700
H3773       H  0.65013684  0.83004735  0.54387032     0.07700
H3774       H  0.59620073  0.91438320  0.47866008     0.07680
H3775       H  0.62536534  0.92474172  0.47876901     0.07680
H3776       H  0.60731635  0.92914241  0.50333386     0.04450
C3777       C  0.60774837  0.76812296  0.39130606    -0.21350
C3778       C  0.62988314  0.77530092  0.38553233    -0.07920
C3779       C  0.64685160  0.75776120  0.38108248     0.12950
C3780       C  0.64114464  0.73442515  0.38242760    -0.21400
C3781       C  0.61946909  0.72738063  0.38903679    -0.07920
C3782       C  0.60237089  0.74450666  0.39331202     0.12940
C3783       C  0.57819354  0.73807580  0.39963737    -0.24750
H3784       H  0.59462403  0.78099853  0.39434499     0.14230
H3785       H  0.65423174  0.72142859  0.37964167     0.14260
C3786       C  0.67173248  0.76277968  0.37608769    -0.24700
H3787       H  0.56670248  0.75333257  0.40018578     0.04470
H3788       H  0.57775590  0.73008375  0.41690198     0.07700
H3789       H  0.57123647  0.72598196  0.38672911     0.07700
H3790       H  0.67876917  0.77364431  0.38996522     0.07680
H3791       H  0.67357531  0.77109011  0.35904982     0.07680
H3792       H  0.68248929  0.74699140  0.37549093     0.04450
C3793       C  0.63993361  0.99425312  0.39737072    -0.21350
C3794       C  0.63221690  0.97819152  0.38088102    -0.07920
C3795       C  0.62122245  0.98653788  0.36108248     0.12950
C3796       C  0.61876669  0.01039049  0.35805003    -0.21400
C3797       C  0.62698316  0.02660615  0.37422475    -0.07920
C3798       C  0.63750074  0.01818842  0.39432747     0.12940
C3799       C  0.64620910  0.03415842  0.41257325    -0.24750
H3800       H  0.64836535  0.98803272  0.41275978     0.14230
H3801       H  0.61053504  0.01631403  0.34245672     0.14260
C3802       C  0.61285235  0.97053603  0.34265906    -0.24700
H3803       H  0.65375775  0.02462846  0.42729159     0.04470
H3804       H  0.63187627  0.04487619  0.41919274     0.07700
H3805       H  0.65971872  0.04535685  0.40531905     0.07700
H3806       H  0.59962062  0.95895741  0.34982784     0.07680
H3807       H  0.62739521  0.96018427  0.33591233     0.07680
H3808       H  0.60506027  0.98000804  0.32802915     0.04450
C3809       C  0.74956455  0.98357302  0.39193100    -0.21350
C3810       C  0.75550141  0.96168209  0.38372323    -0.07920
C3811       C  0.77745835  0.95823342  0.37370443     0.12950
C3812       C  0.79311767  0.97615980  0.37388467    -0.21400
C3813       C  0.78803813  0.99733261  0.38413016    -0.07920
C3814       C  0.76553193  0.00150775  0.39224422     0.12940
C3815       C  0.75808128  0.02453319  0.40129455    -0.24750
H3816       H  0.73258385  0.98649476  0.39889647     0.14230
H3817       H  0.81001764  0.97308887  0.36676308     0.14260
C3818       C  0.78529920  0.93576366  0.36326735    -0.24700
H3819       H  0.73958779  0.02484558  0.40579987     0.04470
H3820       H  0.76090341  0.03776421  0.38788645     0.07700
H3821       H  0.76780068  0.02879330  0.41706172     0.07700
H3822       H  0.77325411  0.93045713  0.34956007     0.07680
H3823       H  0.78662932  0.92232044  0.37673215     0.07680
H3824       H  0.80253198  0.93706294  0.35528032     0.04450
C3825       C  0.62571357  0.86502729  0.24508214    -0.21350
C3826       C  0.63171751  0.88594358  0.23481453    -0.07920
C3827       C  0.63894182  0.90417881  0.24930502     0.12950
C3828       C  0.63914035  0.90136487  0.27332095    -0.21400
C3829       C  0.63295168  0.88060238  0.28360481    -0.07920
C3830       C  0.62663540  0.86204780  0.26919319     0.12940
C3831       C  0.62053230  0.83910388  0.27934586    -0.24750
H3832       H  0.61957126  0.85122584  0.23430636     0.14230
H3833       H  0.64524730  0.91522453  0.28405632     0.14260
C3834       C  0.64711554  0.92687106  0.23996956    -0.24700
H3835       H  0.61534805  0.82666343  0.26592040     0.04470
H3836       H  0.60604205  0.84121529  0.29152222     0.07700
H3837       H  0.63549492  0.83174875  0.28859803     0.07700
H3838       H  0.63535961  0.94080533  0.24564038     0.07680
H3839       H  0.64827022  0.92719711  0.22099111     0.07680
H3840       H  0.66456305  0.93041553  0.24664016     0.04450
C3841       C  0.75959318  0.62435524  0.37113886    -0.21350
C3842       C  0.77344666  0.63050851  0.39004351    -0.07920
C3843       C  0.76239039  0.63784117  0.41028892     0.12950
C3844       C  0.73823514  0.63845416  0.41131883    -0.21400
C3845       C  0.72432123  0.63232854  0.39248477    -0.07920
C3846       C  0.73530465  0.62481890  0.37223401     0.12940
C3847       C  0.72147058  0.61683114  0.35202493    -0.24750
H3848       H  0.76788784  0.61978357  0.35511960     0.14230
H3849       H  0.73003930  0.64355520  0.42722886     0.14260
C3850       C  0.77611600  0.64586757  0.43061007    -0.24700
H3851       H  0.73262221  0.61139059  0.33754779     0.04470
H3852       H  0.71018749  0.63098351  0.34594222     0.07700
H3853       H  0.71075839  0.60198747  0.35711765     0.07700
H3854       H  0.78656379  0.66096630  0.42571575     0.07680
H3855       H  0.78764806  0.63183961  0.43652561     0.07680
H3856       H  0.76491791  0.65095072  0.44518008     0.04450
C3857       C  0.78117251  0.76918810  0.37943968    -0.21350
C3858       C  0.77686711  0.74759776  0.38881138    -0.07920
C3859       C  0.75510245  0.74223564  0.39767661     0.12950
C3860       C  0.73837304  0.75967328  0.39850045    -0.21400
C3861       C  0.74353741  0.78180248  0.39059015    -0.07920
C3862       C  0.76486976  0.78641251  0.38020707     0.12940
C3863       C  0.77066931  0.80936862  0.36963427    -0.24750
H3864       H  0.79774012  0.77277619  0.37181893     0.14230
H3865       H  0.72163757  0.75627349  0.40578506     0.14260
C3866       C  0.74990742  0.71861994  0.40666790    -0.24700
H3867       H  0.78733680  0.80889579  0.36043136     0.04470
H3868       H  0.77209269  0.82271805  0.38309644     0.07700
H3869       H  0.75724472  0.81432167  0.35705630     0.07700
H3870       H  0.76177674  0.71427688  0.42093402     0.07680
H3871       H  0.75206550  0.70582556  0.39271782     0.07680
H3872       H  0.73205516  0.71747945  0.41316740     0.04450
C3873       C  0.88066151  0.75314873  0.49317982    -0.21350
C3874       C  0.86547706  0.75611716  0.47472550    -0.07920
C3875       C  0.85016736  0.77512941  0.47486567     0.12950
C3876       C  0.85262549  0.79198866  0.49171869    -0.21400
C3877       C  0.86975742  0.79043577  0.50850051    -0.07920
C3878       C  0.88303574  0.77004207  0.51012273     0.12940
C3879       C  0.90037024  0.76614359  0.52889936    -0.24750
H3880       H  0.89177091  0.73818413  0.49365343     0.14230
H3881       H  0.84168109  0.80708121  0.49111385     0.14260
C3882       C  0.83143440  0.77831204  0.45725138    -0.24700
H3883       H  0.90887203  0.74910071  0.52745267     0.04470
H3884       H  0.89161089  0.76675156  0.54577596     0.07700
H3885       H  0.91394952  0.77936035  0.52805059     0.07700
H3886       H  0.82101563  0.76248457  0.45607024     0.07680
H3887       H  0.83885949  0.78259427  0.44027191     0.07680
H3888       H  0.81966939  0.79263982  0.46186217     0.04450
C3889       C  0.87731941  0.61818061  0.49433403    -0.21350
C3890       C  0.87029899  0.63929703  0.48503126    -0.07920
C3891       C  0.86370507  0.65715807  0.50036969     0.12950
C3892       C  0.86495081  0.65371836  0.52423220    -0.21400
C3893       C  0.87163045  0.63260031  0.53355923    -0.07920
C3894       C  0.87764217  0.61452193  0.51834154     0.12940
C3895       C  0.88441282  0.59127541  0.52752681    -0.24750
H3896       H  0.88298793  0.60467329  0.48284749     0.14230
H3897       H  0.85898942  0.66717222  0.53564292     0.14260
C3898       C  0.85425049  0.67993293  0.49221999    -0.24700
H3899       H  0.88917547  0.57924976  0.51351958     0.04470
H3900       H  0.86994579  0.58363202  0.53717600     0.07700
H3901       H  0.89937618  0.59302403  0.53914384     0.07700
H3902       H  0.85132251  0.68059759  0.47345000     0.07680
H3903       H  0.86614830  0.69389546  0.49710702     0.07680
H3904       H  0.83737932  0.68317138  0.50045924     0.04450
C3905       C  0.98403161  0.62102784  0.38704052    -0.21350
C3906       C  0.97424707  0.64084050  0.37731952    -0.07920
C3907       C  0.98909303  0.65765230  0.36789648     0.12950
C3908       C  0.01303487  0.65430813  0.36849878    -0.21400
C3909       C  0.02285269  0.63463245  0.37833476    -0.07920
C3910       C  0.00806730  0.61763118  0.38738285     0.12940
C3911       C  0.01775207  0.59578584  0.39737195    -0.24750
H3912       H  0.97289769  0.60843862  0.39489116     0.14230
H3913       H  0.02416169  0.66671104  0.36032835     0.14260
C3914       C  0.97970563  0.67896539  0.35643195    -0.24700
H3915       H  0.00405910  0.58448378  0.40413796     0.04470
H3916       H  0.02956613  0.59994502  0.41168721     0.07700
H3917       H  0.02730044  0.58612484  0.38400138     0.07700
H3918       H  0.97077477  0.69003040  0.36908741     0.07680
H3919       H  0.96756150  0.67406364  0.34263780     0.07680
H3920       H  0.99351416  0.68938060  0.34855594     0.04450
C3921       C  0.97974660  0.75685453  0.38502594    -0.21350
C3922       C  0.95690496  0.76376625  0.38135338    -0.07920
C3923       C  0.95181459  0.78746980  0.37872922     0.12950
C3924       C  0.96954827  0.80330299  0.37991844    -0.21400
C3925       C  0.99229247  0.79659593  0.38402994    -0.07920
C3926       C  0.99756752  0.77297094  0.38641680     0.12940
C3927       C  0.02174474  0.76453508  0.39016341    -0.24750
H3928       H  0.98364647  0.73875203  0.38701314     0.14230
H3929       H  0.96532338  0.82135524  0.37819683     0.14260
C3930       C  0.92777601  0.79679691  0.37560505    -0.24700
H3931       H  0.02273888  0.74549688  0.39044386     0.04470
H3932       H  0.02827770  0.77077877  0.40689025     0.07700
H3933       H  0.03295778  0.77071201  0.37608378     0.07700
H3934       H  0.91683647  0.79153835  0.39027126     0.07680
H3935       H  0.92048001  0.79059981  0.35918024     0.07680
H3936       H  0.92732091  0.81584423  0.37491885     0.04450
C3937       C  0.90009113  0.64194498  0.24960211    -0.21350
C3938       C  0.88167993  0.63611550  0.23504635    -0.07920
C3939       C  0.86068764  0.62984755  0.24521242     0.12950
C3940       C  0.85858897  0.62990716  0.26941649    -0.21400
C3941       C  0.87715949  0.63542171  0.28390958    -0.07920
C3942       C  0.89804244  0.64187949  0.27370055     0.12940
C3943       C  0.91795551  0.64949593  0.28820118    -0.24750
H3944       H  0.91645370  0.64630221  0.24198350     0.14230
H3945       H  0.84217558  0.62594127  0.27713436     0.14260
C3946       C  0.84078796  0.62245752  0.23063995    -0.24700
H3947       H  0.93303825  0.65408292  0.27754785     0.04470
H3948       H  0.92311352  0.63544513  0.30002953     0.07700
H3949       H  0.91297368  0.66482399  0.29839894     0.07700
H3950       H  0.84571445  0.60717005  0.22036451     0.07680
H3951       H  0.83574187  0.63661847  0.21889319     0.07680
H3952       H  0.82567434  0.61790461  0.24126101     0.04450
C3953       C  0.86329941  0.99295227  0.16409153    -0.21350
C3954       C  0.86983471  0.97840618  0.14590033    -0.07920
C3955       C  0.87745033  0.98840444  0.12522897     0.12950
C3956       C  0.87764774  0.01255249  0.12306059    -0.21400
C3957       C  0.87091333  0.02705599  0.14123775    -0.07920
C3958       C  0.86344718  0.01699776  0.16191606     0.12940
C3959       C  0.85471948  0.03163840  0.18137990    -0.24750
H3960       H  0.85803815  0.98537147  0.18024600     0.14230
H3961       H  0.88238072  0.02020118  0.10677597     0.14260
C3962       C  0.88582400  0.97369324  0.10572099    -0.24700
H3963       H  0.84952854  0.02109374  0.19637645     0.04470
H3964       H  0.83955140  0.04175229  0.17568164     0.07700
H3965       H  0.86836251  0.04356006  0.18700291     0.07700
H3966       H  0.87185881  0.96224714  0.09990565     0.07680
H3967       H  0.90064410  0.96310161  0.11146166     0.07680
H3968       H  0.89140879  0.98422705  0.09086202     0.04450
C3969       C  0.98640579  0.89444430  0.13954002    -0.21350
C3970       C  0.97144924  0.87547464  0.13809525    -0.07920
C3971       C  0.98093054  0.85346900  0.13523517     0.12950
C3972       C  0.00485460  0.85090454  0.13414069    -0.21400
C3973       C  0.02001260  0.86976393  0.13568415    -0.07920
C3974       C  0.01049477  0.89190071  0.13815167     0.12940
C3975       C  0.02550769  0.91275397  0.13904500    -0.24750
H3976       H  0.97915053  0.91137467  0.14239614     0.14230
H3977       H  0.01177210  0.83371570  0.13223756     0.14260
C3978       C  0.96594568  0.83251134  0.13450917    -0.24700
H3979       H  0.01524255  0.92878491  0.14067459     0.04470
H3980       H  0.03581362  0.91391682  0.12307112     0.07700
H3981       H  0.03715610  0.91157156  0.15405735     0.07700
H3982       H  0.95391505  0.83382509  0.11980617     0.07680
H3983       H  0.95601441  0.83110348  0.15070098     0.07680
H3984       H  0.97616746  0.81650306  0.13244928     0.04450
C3985       C  0.85312596  0.96786497  0.27790135    -0.21350
C3986       C  0.87149633  0.96706830  0.26236801    -0.07920
C3987       C  0.88883216  0.98390649  0.26351587     0.12950
C3988       C  0.88806817  0.00003585  0.28121651    -0.21400
C3989       C  0.87085912  0.99939988  0.29797870    -0.07920
C3990       C  0.85261034  0.98379228  0.29582072     0.12940
C3991       C  0.83263201  0.98375925  0.31224889    -0.24750
H3992       H  0.83960762  0.95525932  0.27663599     0.14230
H3993       H  0.90188442  0.01228983  0.28281717     0.14260
C3994       C  0.90899740  0.98424568  0.24731780    -0.24700
H3995       H  0.81916914  0.97151513  0.30683786     0.04470
H3996       H  0.82476778  0.00114648  0.31296460     0.07700
H3997       H  0.83835421  0.97853647  0.32963706     0.07700
H3998       H  0.90291003  0.98676950  0.22944653     0.07680
H3999       H  0.91881265  0.96791396  0.24870976     0.07680
H4000       H  0.92098562  0.99843410  0.25126778     0.04450
C4001       C  0.98380666  0.88541109  0.25779100    -0.21350
C4002       C  0.96507879  0.87094726  0.26195803    -0.07920
C4003       C  0.96491716  0.85744673  0.28223120     0.12950
C4004       C  0.98189447  0.86078016  0.29870783    -0.21400
C4005       C  0.99911943  0.87711648  0.29570715    -0.07920
C4006       C  0.00092351  0.88867076  0.27439500     0.12940
C4007       C  0.02007477  0.90511118  0.26922895    -0.24750
H4008       H  0.98445923  0.89520676  0.24199022     0.14230
H4009       H  0.98112963  0.85106586  0.31457681     0.14260
C4010       C  0.94710677  0.83944208  0.28698346    -0.24700
H4011       H  0.01873708  0.91228297  0.25160648     0.04470
H4012       H  0.03681646  0.89604887  0.27052788     0.07700
H4013       H  0.01953655  0.91970959  0.28142146     0.07700
H4014       H  0.94634738  0.82760545  0.27216531     0.07680
H4015       H  0.93013498  0.84747754  0.29023901     0.07680
H4016       H  0.95133974  0.82903197  0.30241635     0.04450
C4017       C  0.85422634  0.76822277  0.25659467    -0.21350
C4018       C  0.87453883  0.78068387  0.25413116    -0.07920
C4019       C  0.89397924  0.77473477  0.26727783     0.12950
C4020       C  0.89186404  0.75817925  0.28447162    -0.21400
C4021       C  0.87084499  0.74752663  0.28858204    -0.07920
C4022       C  0.85200429  0.75179554  0.27393149     0.12940
C4023       C  0.82902596  0.74068743  0.27764804    -0.24750
H4024       H  0.83939778  0.77274703  0.24628278     0.14230
H4025       H  0.90633209  0.75440390  0.29556461     0.14260
C4026       C  0.91674561  0.78613764  0.26362264    -0.24700
H4027       H  0.81607131  0.74681529  0.26504855     0.04470
H4028       H  0.82253719  0.74479288  0.29509574     0.07700
H4029       H  0.83066876  0.72182005  0.27566628     0.07700
H4030       H  0.91536154  0.80451408  0.26806776     0.07680
H4031       H  0.92205292  0.78429523  0.24541702     0.07680
H4032       H  0.93035499  0.77845846  0.27458784     0.04450
C4033       C  0.89330488  0.77130916  0.13104570    -0.21350
C4034       C  0.87131473  0.77806572  0.13743989    -0.07920
C4035       C  0.85442315  0.76078727  0.14085960     0.12950
C4036       C  0.86035336  0.73732750  0.13874385    -0.21400
C4037       C  0.88272388  0.73042171  0.13331953    -0.07920
C4038       C  0.89940618  0.74799296  0.12913738     0.12940
C4039       C  0.92422390  0.74287002  0.12363746    -0.24750
H4040       H  0.90621518  0.78441565  0.12877328     0.14230
H4041       H  0.84742671  0.72431414  0.14139024     0.14260
C4042       C  0.82987596  0.76687877  0.14640829    -0.24700
H4043       H  0.93478485  0.75864948  0.12293161     0.04470
H4044       H  0.92570622  0.73468003  0.10651879     0.07700
H4045       H  0.93171055  0.73170380  0.13716664     0.07700
H4046       H  0.82317268  0.77929347  0.13355195     0.07680
H4047       H  0.82856601  0.77433641  0.16384376     0.07680
H4048       H  0.81867341  0.75154229  0.14609764     0.04450
C4049       C  0.74624011  0.88203587  0.27916894    -0.21350
C4050       C  0.75391682  0.87451879  0.30076337    -0.07920
C4051       C  0.77667822  0.86677213  0.30373636     0.12950
C4052       C  0.79156101  0.86793705  0.28530304    -0.21400
C4053       C  0.78440790  0.87663565  0.26409135    -0.07920
C4054       C  0.76145506  0.88325347  0.26058307     0.12940
C4055       C  0.75332839  0.89210864  0.23769504    -0.24750
H4056       H  0.72854429  0.88740072  0.27702995     0.14230
H4057       H  0.80910711  0.86206507  0.28752367     0.14260
C4058       C  0.78537522  0.85650023  0.32592644    -0.24700
H4059       H  0.73488624  0.89693090  0.23813850     0.04470
H4060       H  0.75569224  0.87866218  0.22441928     0.07700
H4061       H  0.76330192  0.90752010  0.23280129     0.07700
H4062       H  0.77414184  0.84214425  0.33114730     0.07680
H4063       H  0.78581783  0.86971820  0.33958143     0.07680
H4064       H  0.80306105  0.84954506  0.32420556     0.04450
C4065       C  0.76098562  0.90209985  0.15161654    -0.21350
C4066       C  0.77183345  0.88317223  0.14150342    -0.07920
C4067       C  0.75800768  0.86543892  0.13237634     0.12950
C4068       C  0.73384102  0.86764856  0.13251442    -0.21400
C4069       C  0.72303672  0.88679808  0.14242936    -0.07920
C4070       C  0.73694891  0.90410721  0.15229417     0.12940
C4071       C  0.72645901  0.92462939  0.16417121    -0.24750
H4072       H  0.77141459  0.91494430  0.15998207     0.14230
H4073       H  0.72340640  0.85469556  0.12432377     0.14260
C4074       C  0.76884160  0.84406469  0.12260713    -0.24700
H4075       H  0.73968379  0.93561871  0.17223575     0.04470
H4076       H  0.71461685  0.91877214  0.17785664     0.07700
H4077       H  0.71693357  0.93545535  0.15175564     0.07700
H4078       H  0.77877101  0.83495952  0.13612288     0.07680
H4079       H  0.78052421  0.84874781  0.10834248     0.07680
H4080       H  0.75577847  0.83204737  0.11585279     0.04450
C4081       C  0.76232631  0.63524965  0.88216035    -0.21350
C4082       C  0.77119764  0.61363320  0.87625249    -0.07920
C4083       C  0.75553508  0.59593886  0.87032644     0.12950
C4084       C  0.73174830  0.60026045  0.87061149    -0.21400
C4085       C  0.72288791  0.62178800  0.87655925    -0.07920
C4086       C  0.73844543  0.63955821  0.88219066     0.12940
C4087       C  0.72977429  0.66314693  0.88840904    -0.24750
H4088       H  0.77405301  0.64864107  0.88730177     0.14230
H4089       H  0.72000129  0.58701722  0.86511780     0.14260
C4090       C  0.76376720  0.57252875  0.86275394    -0.24700
H4091       H  0.74399938  0.67481269  0.89309727     0.04470
H4092       H  0.71798234  0.66192770  0.90330849     0.07700
H4093       H  0.72049557  0.67091068  0.87367757     0.07700
H4094       H  0.77191710  0.56321902  0.87722844     0.07680
H4095       H  0.77620906  0.57433854  0.84845963     0.07680
H4096       H  0.74942878  0.56171244  0.85658908     0.04450
C4097       C  0.87639548  0.59811523  0.76614859    -0.21350
C4098       C  0.86975695  0.61510293  0.78232087    -0.07920
C4099       C  0.86130649  0.63619021  0.77379729     0.12950
C4100       C  0.85930037  0.63943574  0.74983942    -0.21400
C4101       C  0.86550394  0.62226145  0.73379192    -0.07920
C4102       C  0.87436394  0.60138092  0.74222799     0.12940
C4103       C  0.88077724  0.58213277  0.72621012    -0.24750
H4104       H  0.88299032  0.58178056  0.77220604     0.14230
H4105       H  0.85239181  0.65556932  0.74355821     0.14260
C4106       C  0.85449221  0.65538141  0.78969259    -0.24700
H4107       H  0.88698388  0.56674730  0.73567769     0.04470
H4108       H  0.89467644  0.58778900  0.71454125     0.07700
H4109       H  0.86561966  0.57705355  0.71592308     0.07700
H4110       H  0.86938460  0.66039651  0.80038710     0.07680
H4111       H  0.84021564  0.64976125  0.80091029     0.07680
H4112       H  0.84860847  0.67081437  0.78010385     0.04450
C4113       C  0.98794754  0.61832424  0.86530148    -0.21350
C4114       C  0.97210630  0.62835628  0.88095735    -0.07920
C4115       C  0.98084057  0.64256125  0.89826507     0.12950
C4116       C  0.00480977  0.64472995  0.90063435    -0.21400
C4117       C  0.02076102  0.63264377  0.88653182    -0.07920
C4118       C  0.01195735  0.62006304  0.86797595     0.12940
C4119       C  0.02759844  0.60777848  0.85148449    -0.24750
H4120       H  0.98151751  0.60788117  0.85137669     0.14230
H4121       H  0.01102929  0.65531950  0.91452734     0.14260
C4122       C  0.96513878  0.65448599  0.91498337    -0.24700
H4123       H  0.01784231  0.59880404  0.83785419     0.04470
H4124       H  0.03798732  0.59476118  0.86081567     0.07700
H4125       H  0.03911908  0.62032487  0.84305894     0.07700
H4126       H  0.95507639  0.64160826  0.92468732     0.07680
H4127       H  0.95328527  0.66610777  0.90554530     0.07680
H4128       H  0.97481533  0.66494275  0.92756558     0.04450
C4129       C  0.86912841  0.60159562  0.00122298    -0.21350
C4130       C  0.87345415  0.61953694  0.98527971    -0.07920
C4131       C  0.87974827  0.64110909  0.99412104     0.12950
C4132       C  0.88206303  0.64389485  0.01816510    -0.21400
C4133       C  0.87803937  0.62577604  0.03388415    -0.07920
C4134       C  0.87132811  0.60440884  0.02512192     0.12940
C4135       C  0.86764229  0.58417436  0.04080076    -0.24750
H4136       H  0.86431993  0.58480397  0.99500294     0.14230
H4137       H  0.88759076  0.66033408  0.02477074     0.14260
C4138       C  0.88390838  0.66117662  0.97844754    -0.24700
H4139       H  0.86294898  0.56849546  0.03113707     0.04470
H4140       H  0.85356223  0.58805935  0.05302057     0.07700
H4141       H  0.88359340  0.58038535  0.05052500     0.07700
H4142       H  0.86823549  0.66485279  0.96824288     0.07680
H4143       H  0.89836708  0.65721748  0.96670496     0.07680
H4144       H  0.88830593  0.67689872  0.98821237     0.04450
C4145       C  0.88752505  0.26081095  0.12279429    -0.21350
C4146       C  0.86923531  0.27676123  0.12486251    -0.07920
C4147       C  0.84703202  0.26811494  0.12842928     0.12950
C4148       C  0.84374709  0.24416681  0.13006934    -0.21400
C4149       C  0.86200286  0.22810306  0.12811064    -0.07920
C4150       C  0.88425995  0.23678211  0.12450511     0.12940
C4151       C  0.90464220  0.22093582  0.12287322    -0.24750
H4152       H  0.90461389  0.26724734  0.11954635     0.14230
H4153       H  0.82649626  0.23794246  0.13275729     0.14260
C4154       C  0.82659742  0.28399456  0.12947957    -0.24700
H4155       H  0.92084065  0.23055697  0.12048132     0.04470
H4156       H  0.90257645  0.20924952  0.10801016     0.07700
H4157       H  0.90620237  0.21068478  0.13888153     0.07700
H4158       H  0.82525773  0.29396470  0.11327014     0.07680
H4159       H  0.82847483  0.29599111  0.14411615     0.07680
H4160       H  0.81035298  0.27443718  0.13183058     0.04450
C4161       C  0.75673927  0.38595091  0.10760174    -0.21350
C4162       C  0.77296759  0.37628153  0.12310150    -0.07920
C4163       C  0.76448383  0.36472874  0.14256934     0.12950
C4164       C  0.74054794  0.36266107  0.14556504    -0.21400
C4165       C  0.72444763  0.37158626  0.12958423    -0.07920
C4166       C  0.73285335  0.38365759  0.11048435     0.12940
C4167       C  0.71686493  0.39327657  0.09256314    -0.24750
H4168       H  0.76268497  0.39512840  0.09260225     0.14230
H4169       H  0.73435292  0.35338325  0.16043145     0.14260
C4170       C  0.78038711  0.35429074  0.16009056    -0.24700
H4171       H  0.72631809  0.40188075  0.07845824     0.04470
H4172       H  0.70521198  0.40613148  0.10049142     0.07700
H4173       H  0.70661263  0.37923040  0.08493308     0.07700
H4174       H  0.79132388  0.36783671  0.16765814     0.07680
H4175       H  0.79133179  0.34100433  0.15186191     0.07680
H4176       H  0.77083265  0.34595965  0.17429175     0.04450
C4177       C  0.87244475  0.49557334  0.10981672    -0.21350
C4178       C  0.87715545  0.47957306  0.12767514    -0.07920
C4179       C  0.88293301  0.48836301  0.14942200     0.12950
C4180       C  0.88429053  0.51244347  0.15247562    -0.21400
C4181       C  0.87975783  0.52822226  0.13445179    -0.07920
C4182       C  0.87357442  0.51947331  0.11290039     0.12940
C4183       C  0.86924258  0.53516365  0.09274741    -0.24750
H4184       H  0.86804894  0.48942345  0.09286320     0.14230
H4185       H  0.88941031  0.51904484  0.16907469     0.14260
C4186       C  0.88754568  0.47259990  0.16936283    -0.24700
H4187       H  0.86500450  0.52544782  0.07693689     0.04470
H4188       H  0.88475328  0.54551448  0.08916981     0.07700
H4189       H  0.85460820  0.54679075  0.09659322     0.07700
H4190       H  0.90239165  0.46128705  0.16540683     0.07680
H4191       H  0.87221104  0.46193976  0.17277626     0.07680
H4192       H  0.89156963  0.48231554  0.18522857     0.04450
C4193       C  0.86668344  0.49195337  0.01739261    -0.21350
C4194       C  0.88508181  0.47632928  0.01729460    -0.07920
C4195       C  0.90391869  0.48027710  0.00264114     0.12950
C4196       C  0.90219912  0.49752059  0.98598723    -0.21400
C4197       C  0.88215832  0.51074921  0.98367016    -0.07920
C4198       C  0.86481791  0.50908472  0.00058805     0.12940
C4199       C  0.84346491  0.52378177  0.00011060    -0.24750
H4200       H  0.85260335  0.48942740  0.02925482     0.14230
H4201       H  0.91596532  0.49959926  0.97368003     0.14260
C4202       C  0.92565962  0.46622280  0.00413958    -0.24700
H4203       H  0.83204097  0.52015339  0.01490949     0.04470
H4204       H  0.83357583  0.52040491  0.98421411     0.07700
H4205       H  0.84817255  0.54217353  0.00093547     0.07700
H4206       H  0.92256702  0.44828672  0.99875848     0.07680
H4207       H  0.93225203  0.46647208  0.02201423     0.07680
H4208       H  0.93923624  0.47317107  0.99277013     0.04450
C4209       C  0.98912582  0.36440752  0.13683703    -0.21350
C4210       C  0.97465843  0.38226549  0.12897951    -0.07920
C4211       C  0.98489607  0.40172565  0.11894740     0.12950
C4212       C  0.00894916  0.40313917  0.11751476    -0.21400
C4213       C  0.02347882  0.38540561  0.12543628    -0.07920
C4214       C  0.01332285  0.36592851  0.13556836     0.12940
C4215       C  0.02797987  0.34706287  0.14551588    -0.24750
H4216       H  0.98140154  0.34888414  0.14347477     0.14230
H4217       H  0.01657887  0.41853726  0.11047669     0.14260
C4218       C  0.97036179  0.42076346  0.10902804    -0.24700
H4219       H  0.01742470  0.33306893  0.15287577     0.04470
H4220       H  0.03894102  0.35403583  0.15940176     0.07700
H4221       H  0.03905287  0.33965358  0.13189179     0.07700
H4222       H  0.95913884  0.42803224  0.12261231     0.07680
H4223       H  0.95955886  0.41401540  0.09490659     0.07680
H4224       H  0.98098873  0.43484672  0.10195191     0.04450
C4225       C  0.09758123  0.35819784  0.76752235    -0.21350
C4226       C  0.11298176  0.37175150  0.78006676    -0.07920
C4227       C  0.12872883  0.38544131  0.76776227     0.12950
C4228       C  0.12945961  0.38437609  0.74349023    -0.21400
C4229       C  0.11429400  0.37047135  0.73099374    -0.07920
C4230       C  0.09827597  0.35712885  0.74333657     0.12940
C4231       C  0.08200032  0.34148080  0.73091481    -0.24750
H4232       H  0.08467085  0.34857125  0.77674813     0.14230
H4233       H  0.14236851  0.39397373  0.73425063     0.14260
C4234       C  0.14448538  0.40148864  0.78027231    -0.24700
H4235       H  0.07030189  0.33255357  0.74297251     0.04470
H4236       H  0.09176337  0.32821840  0.72128189     0.07700
H4237       H  0.07140754  0.35165146  0.71872041     0.07700
H4238       H  0.15547683  0.39157337  0.79231311     0.07680
H4239       H  0.13424686  0.41424248  0.79010875     0.07680
H4240       H  0.15576866  0.41097459  0.76824810     0.04450
C4241       C  0.10547760  0.24150245  0.85686566    -0.21350
C4242       C  0.11575040  0.22839976  0.87443746    -0.07920
C4243       C  0.12531032  0.23999209  0.89338437     0.12950
C4244       C  0.12405752  0.26421606  0.89443830    -0.21400
C4245       C  0.11408452  0.27726876  0.87663862    -0.07920
C4246       C  0.10426725  0.26562364  0.85788225     0.12940
C4247       C  0.09215293  0.27867319  0.83908024    -0.24750
H4248       H  0.09876954  0.23275540  0.84191224     0.14230
H4249       H  0.13066777  0.27303254  0.90938223     0.14260
C4250       C  0.13740207  0.22686033  0.91209670    -0.24700
H4251       H  0.08553530  0.26703281  0.82557013     0.04470
H4252       H  0.10420514  0.29089095  0.83094034     0.07700
H4253       H  0.07739739  0.28836401  0.84633273     0.07700
H4254       H  0.15215990  0.21721702  0.90479148     0.07680
H4255       H  0.12534340  0.21459432  0.92015292     0.07680
H4256       H  0.14398574  0.23845255  0.92566089     0.04450
C4257       C  0.10952952  0.49521072  0.86581610    -0.21350
C4258       C  0.12312660  0.47917389  0.87841437    -0.07920
C4259       C  0.14015342  0.48796322  0.89295706     0.12950
C4260       C  0.14198621  0.51199731  0.89567744    -0.21400
C4261       C  0.12693653  0.52786208  0.88465578    -0.07920
C4262       C  0.11094967  0.51914326  0.86896817     0.12940
C4263       C  0.09461367  0.53475402  0.85631361    -0.24750
H4264       H  0.09674189  0.48904580  0.85389552     0.14230
H4265       H  0.15487501  0.51836355  0.90738429     0.14260
C4266       C  0.15590629  0.47224371  0.90614796    -0.24700
H4267       H  0.08301647  0.52503379  0.84481787     0.04470
H4268       H  0.10440183  0.54703577  0.84560340     0.07700
H4269       H  0.08380540  0.54433414  0.86876507     0.07700
H4270       H  0.16570165  0.46125197  0.89402411     0.07680
H4271       H  0.14577088  0.46127451  0.91790921     0.07680
H4272       H  0.16839196  0.48198153  0.91664544     0.04450
C4273       C  0.99250933  0.51396407  0.89527237    -0.21350
C4274       C  0.97047946  0.50700719  0.88863380    -0.07920
C4275       C  0.96709734  0.48506015  0.87897855     0.12950
C4276       C  0.98545653  0.46995438  0.87796031    -0.21400
C4277       C  0.00696254  0.47602830  0.88640589    -0.07920
C4278       C  0.01103250  0.49844093  0.89428875     0.12940
C4279       C  0.03450072  0.50558411  0.90207702    -0.24750
H4280       H  0.99502061  0.53116506  0.90182557     0.14230
H4281       H  0.98282549  0.45283385  0.87119610     0.14260
C4282       C  0.94430849  0.47729516  0.86947007    -0.24700
H4283       H  0.03465247  0.52375813  0.90778638     0.04470
H4284       H  0.04685920  0.50368768  0.88769335     0.07700
H4285       H  0.04015730  0.49461700  0.91662388     0.07700
H4286       H  0.93787801  0.48991397  0.85667502     0.07680
H4287       H  0.93164500  0.47527187  0.88351241     0.07680
H4288       H  0.94570586  0.46040952  0.86075125     0.04450
C4289       C  0.12503511  0.36645283  0.02155748    -0.21350
C4290       C  0.12782405  0.38909957  0.02902839    -0.07920
C4291       C  0.13076592  0.40654936  0.01185175     0.12950
C4292       C  0.13007479  0.40092048  0.98832472    -0.21400
C4293       C  0.12633718  0.37852057  0.98097076    -0.07920
C4294       C  0.12430043  0.36094759  0.99791703     0.12940
C4295       C  0.12158559  0.33612541  0.99118468    -0.24750
H4296       H  0.12345208  0.35295581  0.03426574     0.14230
H4297       H  0.13109857  0.41439120  0.97552293     0.14260
C4298       C  0.13361355  0.43161106  0.01771915    -0.24700
H4299       H  0.12228945  0.32457590  0.00635273     0.04470
H4300       H  0.13563427  0.33102951  0.97936234     0.07700
H4301       H  0.10482632  0.33334878  0.98273097     0.07700
H4302       H  0.15043127  0.43442948  0.02610107     0.07680
H4303       H  0.11943705  0.43734766  0.02906932     0.07680
H4304       H  0.13325082  0.44274398  0.00223182     0.04450
C4305       C  0.00978917  0.38887829  0.00137949    -0.21350
C4306       C  0.00453397  0.38172833  0.97899034    -0.07920
C4307       C  0.98274002  0.37252670  0.97401498     0.12950
C4308       C  0.96618358  0.37232515  0.99108318    -0.21400
C4309       C  0.97076131  0.38083121  0.01298451    -0.07920
C4310       C  0.99292196  0.38845856  0.01865932     0.12940
C4311       C  0.99840533  0.39673514  0.04247801    -0.24750
H4312       H  0.02674390  0.39539990  0.00510934     0.14230
H4313       H  0.94926585  0.36578209  0.98717564     0.14260
C4314       C  0.97669806  0.36265616  0.95080913    -0.24700
H4315       H  0.01650837  0.40234152  0.04390189     0.04470
H4316       H  0.99561268  0.38267369  0.05503062     0.07700
H4317       H  0.98713435  0.41148027  0.04694612     0.07700
H4318       H  0.98952068  0.34942286  0.94582385     0.07680
H4319       H  0.97605378  0.37639079  0.93763307     0.07680
H4320       H  0.95960366  0.35437796  0.95091118     0.04450
C4321       C  0.64764225  0.37117004  0.76591017    -0.21350
C4322       C  0.63229380  0.38096122  0.78217431    -0.07920
C4323       C  0.61315738  0.39319021  0.77372486     0.12950
C4324       C  0.61022633  0.39563244  0.74976412    -0.21400
C4325       C  0.62589533  0.38629414  0.73362117    -0.07920
C4326       C  0.64475189  0.37367168  0.74201373     0.12940
C4327       C  0.66235237  0.36348070  0.72602211    -0.24750
H4328       H  0.66247618  0.36159714  0.77182738     0.14230
H4329       H  0.59555426  0.40531118  0.74360236     0.14260
C4330       C  0.59586864  0.40384774  0.78970087    -0.24700
H4331       H  0.67625838  0.35447621  0.73550967     0.04470
H4332       H  0.67029116  0.37725555  0.71557463     0.07700
H4333       H  0.65409639  0.35079840  0.71454639     0.07700
H4334       H  0.60437323  0.41670358  0.80080116     0.07680
H4335       H  0.58797168  0.39033736  0.80051341     0.07680
H4336       H  0.58190999  0.41273434  0.78017948     0.04450
C4337       C  0.77416380  0.45573879  0.87246630    -0.21350
C4338       C  0.75279184  0.46162677  0.88188322    -0.07920
C4339       C  0.74888003  0.48450557  0.88907065     0.12950
C4340       C  0.76710151  0.50016333  0.88842040    -0.21400
C4341       C  0.78907579  0.49354507  0.88090628    -0.07920
C4342       C  0.79236672  0.47110510  0.87200867     0.12940
C4343       C  0.81495126  0.46250032  0.86252090    -0.24750
H4344       H  0.77713551  0.43848253  0.86619739     0.14230
H4345       H  0.76431090  0.51748521  0.89459302     0.14260
C4346       C  0.72585366  0.49263503  0.89760646    -0.24700
H4347       H  0.81366899  0.44483512  0.85552215     0.04470
H4348       H  0.82805790  0.46186237  0.87632345     0.07700
H4349       H  0.82065698  0.47373301  0.84825500     0.07700
H4350       H  0.72142875  0.48371084  0.91381992     0.07680
H4351       H  0.71255284  0.48929990  0.88441155     0.07680
H4352       H  0.72575144  0.51134650  0.90120615     0.04450
C4353       C  0.62040658  0.49094561  0.89340816    -0.21350
C4354       C  0.63240653  0.47759489  0.87719705    -0.07920
C4355       C  0.64432132  0.48894820  0.85944499     0.12950
C4356       C  0.64325073  0.51304311  0.85777381    -0.21400
C4357       C  0.63112317  0.52644646  0.87380861    -0.07920
C4358       C  0.61936525  0.51516335  0.89172939     0.12940
C4359       C  0.60523945  0.52862733  0.90866653    -0.24750
H4360       H  0.61211218  0.48239428  0.90767061     0.14230
H4361       H  0.65162391  0.52152635  0.84350702     0.14260
C4362       C  0.65845851  0.47560069  0.84236533    -0.24700
H4363       H  0.59707368  0.51727438  0.92158221     0.04470
H4364       H  0.59147249  0.53818348  0.89951811     0.07700
H4365       H  0.61633294  0.54099482  0.91784806     0.07700
H4366       H  0.64739895  0.46317648  0.83321776     0.07680
H4367       H  0.67237472  0.46613148  0.85138235     0.07680
H4368       H  0.66647236  0.48701161  0.82940138     0.04450
C4369       C  0.63881421  0.35632942  0.99560160    -0.21350
C4370       C  0.62564235  0.37283840  0.98390229    -0.07920
C4371       C  0.61295680  0.38895409  0.99699127     0.12950
C4372       C  0.61320516  0.38773965  0.02125381    -0.21400
C4373       C  0.62650824  0.37123842  0.03289973    -0.07920
C4374       C  0.63924582  0.35520058  0.01974773     0.12940
C4375       C  0.65347879  0.33681185  0.03125913    -0.24750
H4376       H  0.64954157  0.34472182  0.98573819     0.14230
H4377       H  0.60254784  0.39937352  0.03115191     0.14260
C4378       C  0.59940845  0.40764983  0.98527467    -0.24700
H4379       H  0.66297369  0.32617987  0.01858217     0.04470
H4380       H  0.64233952  0.32519141  0.04134965     0.07700
H4381       H  0.66615760  0.34487679  0.04288518     0.07700
H4382       H  0.58652131  0.39989266  0.97366898     0.07680
H4383       H  0.61105286  0.41867841  0.97507275     0.07680
H4384       H  0.59025561  0.41871031  0.99783731     0.04450
C4385       C  0.74612655  0.37475442  0.99856853    -0.21350
C4386       C  0.75058783  0.37687330  0.97503274    -0.07920
C4387       C  0.77319359  0.38125279  0.96732311     0.12950
C4388       C  0.79087534  0.38190142  0.98321894    -0.21400
C4389       C  0.78673775  0.37898916  0.00662601    -0.07920
C4390       C  0.76407053  0.37590481  0.01462897     0.12940
C4391       C  0.75882056  0.37324906  0.03979789    -0.24750
H4392       H  0.72871830  0.37181768  0.00430297     0.14230
H4393       H  0.80817590  0.38507742  0.97725090     0.14260
C4394       C  0.77902803  0.38608526  0.94248480    -0.24700
H4395       H  0.74034339  0.36991578  0.04281679     0.04470
H4396       H  0.76327257  0.38922846  0.04905598     0.07700
H4397       H  0.76879601  0.35864788  0.04701636     0.07700
H4398       H  0.76773506  0.39991459  0.93568463     0.07680
H4399       H  0.77722716  0.37032378  0.93201932     0.07680
H4400       H  0.79701365  0.39186781  0.94040263     0.04450
C4401       C  0.64508198  0.26341064  0.89830548    -0.21350
C4402       C  0.62685445  0.27671265  0.88941842    -0.07920
C4403       C  0.60824157  0.26518216  0.87925525     0.12950
C4404       C  0.60806784  0.24088237  0.87878903    -0.21400
C4405       C  0.62650780  0.22766439  0.88742606    -0.07920
C4406       C  0.64508114  0.23926038  0.89755118     0.12940
C4407       C  0.66473362  0.22607922  0.90811915    -0.24750
H4408       H  0.65989200  0.27210277  0.90531004     0.14230
H4409       H  0.59316661  0.23209712  0.87212573     0.14260
C4410       C  0.58888224  0.27850857  0.86846209    -0.24700
H4411       H  0.67802442  0.23769172  0.91512908     0.04470
H4412       H  0.67288531  0.21498969  0.89492906     0.07700
H4413       H  0.65839932  0.21518660  0.92239633     0.07700
H4414       H  0.59554156  0.28935077  0.85429873     0.07680
H4415       H  0.58066626  0.28967099  0.88154871     0.07680
H4416       H  0.57561971  0.26697319  0.86127613     0.04450
C4417       C  0.99033161  0.14564348  0.89760658    -0.21350
C4418       C  0.97418375  0.13816953  0.88109025    -0.07920
C4419       C  0.98241002  0.12726966  0.86120194     0.12950
C4420       C  0.00618663  0.12456548  0.85815928    -0.21400
C4421       C  0.02253155  0.13243529  0.87437104    -0.07920
C4422       C  0.01424798  0.14288541  0.89456052     0.12940
C4423       C  0.03035218  0.15117351  0.91287028    -0.24750
H4424       H  0.98419283  0.15405989  0.91301676     0.14230
H4425       H  0.01193761  0.11638591  0.84250086     0.14260
C4426       C  0.96636079  0.11928619  0.84263426    -0.24700
H4427       H  0.02096016  0.15870713  0.92765585     0.04470
H4428       H  0.04172959  0.16459691  0.90572996     0.07700
H4429       H  0.04086158  0.13659300  0.91934398     0.07700
H4430       H  0.95620589  0.13404538  0.83599705     0.07680
H4431       H  0.95465047  0.10606703  0.84960554     0.07680
H4432       H  0.97573452  0.11153924  0.82795382     0.04450
C4433       C  0.88430751  0.14741413  0.00104842    -0.21350
C4434       C  0.87372288  0.13301206  0.98452678    -0.07920
C4435       C  0.86126344  0.11403549  0.99260710     0.12950
C4436       C  0.85876441  0.11078860  0.01651896    -0.21400
C4437       C  0.86816085  0.12609394  0.03291924    -0.07920
C4438       C  0.88158704  0.14435559  0.02485914     0.12940
C4439       C  0.89235554  0.16126521  0.04107250    -0.24750
H4440       H  0.89444164  0.16186380  0.99541910     0.14230
H4441       H  0.84871755  0.09636019  0.02240374     0.14260
C4442       C  0.85020264  0.09745902  0.97629812    -0.24700
H4443       H  0.90209659  0.17470726  0.03178907     0.04470
H4444       H  0.90445912  0.15218787  0.05269902     0.07700
H4445       H  0.87884412  0.16998362  0.05132370     0.07700
H4446       H  0.86347992  0.08948613  0.96517131     0.07680
H4447       H  0.83739988  0.10661298  0.96551413     0.07680
H4448       H  0.84121349  0.08348249  0.98555284     0.04450
C4449       C  0.84935738  0.26962124  0.97801234    -0.21350
C4450       C  0.86503791  0.25129335  0.97945435    -0.07920
C4451       C  0.88004312  0.25004982  0.99852962     0.12950
C4452       C  0.88105015  0.26874021  0.01365855    -0.21400
C4453       C  0.86767714  0.28854805  0.01004570    -0.07920
C4454       C  0.85057796  0.28838180  0.99284132     0.12940
C4455       C  0.83378559  0.30792478  0.98948773    -0.24750
H4456       H  0.83697733  0.27008319  0.96414834     0.14230
H4457       H  0.89349709  0.26845527  0.02746500     0.14260
C4458       C  0.89573068  0.22981794  0.00268655    -0.24700
H4459       H  0.82029683  0.30358655  0.97679429     0.04470
H4460       H  0.84270295  0.32332259  0.98285944     0.07700
H4461       H  0.82512376  0.31195773  0.00597045     0.07700
H4462       H  0.90867675  0.22855600  0.98880398     0.07680
H4463       H  0.88554819  0.21380362  0.00355217     0.07680
H4464       H  0.90519397  0.23143884  0.01913965     0.04450
C4465       C  0.95056273  0.28487130  0.88484219    -0.21350
C4466       C  0.95728279  0.26181280  0.88623239    -0.07920
C4467       C  0.98082916  0.25625977  0.88834564     0.12950
C4468       C  0.99695970  0.27410237  0.88897068    -0.21400
C4469       C  0.99007733  0.29721845  0.88765877    -0.07920
C4470       C  0.96637853  0.30261745  0.88574619     0.12940
C4471       C  0.95703297  0.32688894  0.88544137    -0.24750
H4472       H  0.93252117  0.28923394  0.88359362     0.14230
H4473       H  0.01503234  0.26997611  0.89047418     0.14260
C4474       C  0.98913669  0.23176031  0.88954358    -0.24700
H4475       H  0.93799867  0.32739618  0.88540718     0.04470
H4476       H  0.96268266  0.33591247  0.86966594     0.07700
H4477       H  0.96276226  0.33623358  0.90099400     0.07700
H4478       H  0.98301653  0.22215285  0.87431296     0.07680
H4479       H  0.98274426  0.22347649  0.90543349     0.07680
H4480       H  0.00814435  0.23067068  0.88984988     0.04450
C4481       C  0.77977774  0.26753085  0.87654342    -0.21350
C4482       C  0.77564060  0.24666396  0.88750441    -0.07920
C4483       C  0.75391732  0.24182409  0.89677620     0.12950
C4484       C  0.73710923  0.25919616  0.89652250    -0.21400
C4485       C  0.74208592  0.28075253  0.88707163    -0.07920
C4486       C  0.76329538  0.28469214  0.87613193     0.12940
C4487       C  0.76882065  0.30692713  0.86396549    -0.24750
H4488       H  0.79635589  0.27063081  0.86872305     0.14230
H4489       H  0.72050659  0.25627702  0.90431780     0.14260
C4490       C  0.74886153  0.21885021  0.90736798    -0.24700
H4491       H  0.78549089  0.30595784  0.85479914     0.04470
H4492       H  0.77009560  0.32119960  0.87645633     0.07700
H4493       H  0.75535920  0.31090387  0.85107917     0.07700
H4494       H  0.76073541  0.21558535  0.92190566     0.07680
H4495       H  0.75113958  0.20514828  0.89432482     0.07680
H4496       H  0.73100257  0.21803452  0.91391322     0.04450
C4497       C  0.76557577  0.13001768  0.90728295    -0.21350
C4498       C  0.77378321  0.12881859  0.88486267    -0.07920
C4499       C  0.75754269  0.12753834  0.86664515     0.12950
C4500       C  0.73370291  0.12743981  0.87138156    -0.21400
C4501       C  0.72543692  0.12897617  0.89392641    -0.07920
C4502       C  0.74190603  0.13035428  0.91209934     0.12940
C4503       C  0.73496295  0.13327712  0.93687409    -0.24750
H4504       H  0.77781854  0.13204447  0.92111873     0.14230
H4505       H  0.72151944  0.12587395  0.85744204     0.14260
C4506       C  0.76536817  0.12606987  0.84204018    -0.24700
H4507       H  0.74986903  0.13746249  0.94791405     0.04470
H4508       H  0.72765398  0.11710942  0.94362879     0.07700
H4509       H  0.72238079  0.14754432  0.93853034     0.07700
H4510       H  0.77701222  0.11108778  0.83990786     0.07680
H4511       H  0.77448803  0.14193416  0.83701685     0.07680
H4512       H  0.75070612  0.12396984  0.83008562     0.04450
C4513       C  0.87907685  0.15811945  0.76653212    -0.21350
C4514       C  0.87788138  0.13928514  0.78184537    -0.07920
C4515       C  0.87662508  0.11704248  0.77242612     0.12950
C4516       C  0.87717174  0.11423151  0.74830196    -0.21400
C4517       C  0.87843376  0.13309464  0.73308302    -0.07920
C4518       C  0.87951621  0.15531638  0.74248357     0.12940
C4519       C  0.88214757  0.17602729  0.72723287    -0.24750
H4520       H  0.87973791  0.17534850  0.77348531     0.14230
H4521       H  0.87703702  0.09705169  0.74120838     0.14260
C4522       C  0.87411008  0.09635069  0.78765110    -0.24700
H4523       H  0.88301330  0.19216131  0.73731613     0.04470
H4524       H  0.86729825  0.17732593  0.71539288     0.07700
H4525       H  0.89816653  0.17448195  0.71704201     0.07700
H4526       H  0.85826971  0.09801988  0.79810041     0.07680
H4527       H  0.88916501  0.09488060  0.79920118     0.07680
H4528       H  0.87293501  0.08027294  0.77752181     0.04450
C4529       C  0.84774735  0.48688548  0.64196850    -0.21350
C4530       C  0.86985922  0.47812436  0.63893206    -0.07920
C4531       C  0.88814076  0.49372848  0.63536018     0.12950
C4532       C  0.88379069  0.51760841  0.63469624    -0.21400
C4533       C  0.86160291  0.52640508  0.63779020    -0.07920
C4534       C  0.84335301  0.51066128  0.64155705     0.12940
C4535       C  0.81912861  0.51872667  0.64606075    -0.24750
H4536       H  0.83395886  0.47507333  0.64572304     0.14230
H4537       H  0.89766265  0.52938978  0.63120304     0.14260
C4538       C  0.91230896  0.48514570  0.63189906    -0.24700
H4539       H  0.80782689  0.50436656  0.65128015     0.04470
H4540       H  0.81157854  0.52630383  0.63032191     0.07700
H4541       H  0.81899711  0.53156625  0.66011388     0.07700
H4542       H  0.91284135  0.47313463  0.61713398     0.07680
H4543       H  0.91848456  0.47615452  0.64752309     0.07680
H4544       H  0.92431530  0.49941825  0.62829320     0.04450
C4545       C  0.76115213  0.37615248  0.75727628    -0.21350
C4546       C  0.78381498  0.38113157  0.76365424    -0.07920
C4547       C  0.78891961  0.38554306  0.78709138     0.12950
C4548       C  0.77142190  0.38477689  0.80308820    -0.21400
C4549       C  0.74907297  0.37865905  0.79713506    -0.07920
C4550       C  0.74361376  0.37473401  0.77380902     0.12940
C4551       C  0.71962237  0.36919078  0.76616446    -0.24750
H4552       H  0.75725834  0.37290292  0.73938950     0.14230
H4553       H  0.77575170  0.38802720  0.82086047     0.14260
C4554       C  0.81277704  0.38984211  0.79632211    -0.24700
H4555       H  0.71839962  0.36794905  0.74718515     0.04470
H4556       H  0.70761242  0.38288359  0.77189677     0.07700
H4557       H  0.71427168  0.35244155  0.77339140     0.07700
H4558       H  0.81965564  0.40595351  0.78909199     0.07680
H4559       H  0.82420140  0.37508757  0.79226062     0.07680
H4560       H  0.81308883  0.39186765  0.81527226     0.04450
C4561       C  0.75576154  0.38126924  0.66124205    -0.21350
C4562       C  0.77142477  0.38298268  0.64272405    -0.07920
C4563       C  0.76254605  0.38498866  0.62033421     0.12950
C4564       C  0.73854147  0.38557380  0.61717347    -0.21400
C4565       C  0.72303931  0.38380745  0.63576469    -0.07920
C4566       C  0.73189193  0.38153403  0.65806660     0.12940
C4567       C  0.71629122  0.38039654  0.67864898    -0.24750
H4568       H  0.76223830  0.37970452  0.67860774     0.14230
H4569       H  0.73175521  0.38784018  0.59999040     0.14260
C4570       C  0.77815166  0.38611213  0.59982807    -0.24700
H4571       H  0.72608390  0.37896730  0.69494176     0.04470
H4572       H  0.70505385  0.36516243  0.67729533     0.07700
H4573       H  0.70553382  0.39615419  0.67955035     0.07700
H4574       H  0.78900365  0.37041033  0.59908570     0.07680
H4575       H  0.78925691  0.40144503  0.60110429     0.07680
H4576       H  0.76833417  0.38734070  0.58353780     0.04450
C4577       C  0.88874596  0.48529733  0.75936499    -0.21350
C4578       C  0.87000464  0.47037815  0.75894049    -0.07920
C4579       C  0.85225721  0.47304870  0.77528119     0.12950
C4580       C  0.85507050  0.48870412  0.79320144    -0.21400
C4581       C  0.87488846  0.50198373  0.79489099    -0.07920
C4582       C  0.89149902  0.50109433  0.77720539     0.12940
C4583       C  0.91289406  0.51547204  0.77770123    -0.24750
H4584       H  0.90215840  0.48350180  0.74660974     0.14230
H4585       H  0.84203510  0.49006591  0.80640704     0.14260
C4586       C  0.83038583  0.45948565  0.77409208    -0.24700
H4587       H  0.92432829  0.51171496  0.76291957     0.04470
H4588       H  0.92271497  0.51193147  0.79365515     0.07700
H4589       H  0.90823759  0.53394415  0.77681194     0.07700
H4590       H  0.83387315  0.44115560  0.77759497     0.07680
H4591       H  0.82251972  0.46146456  0.75685054     0.07680
H4592       H  0.81769059  0.46541103  0.78703338     0.04450
C4593       C  0.98820502  0.39293502  0.64192125    -0.21350
C4594       C  0.97255001  0.37484442  0.63826478    -0.07920
C4595       C  0.98126611  0.35318516  0.63209400     0.12950
C4596       C  0.00512965  0.35007238  0.63014177    -0.21400
C4597       C  0.02096882  0.36800068  0.63419746    -0.07920
C4598       C  0.01217003  0.38984892  0.63988902     0.12940
C4599       C  0.02778561  0.40993104  0.64366769    -0.24750
H4600       H  0.98160353  0.40961174  0.64696036     0.14230
H4601       H  0.01142112  0.33312215  0.62571635     0.14260
C4602       C  0.96560677  0.33302153  0.62866747    -0.24700
H4603       H  0.01800297  0.42586028  0.64758725     0.04470
H4604       H  0.03809514  0.41306822  0.62797051     0.07700
H4605       H  0.03938209  0.40634038  0.65834847     0.07700
H4606       H  0.95351474  0.33670423  0.61441174     0.07680
H4607       H  0.95577994  0.32970880  0.64463862     0.07680
H4608       H  0.97528975  0.31714273  0.62430948     0.04450
C4609       C  0.98366444  0.37870835  0.75807567    -0.21350
C4610       C  0.96070224  0.37565977  0.76447153    -0.07920
C4611       C  0.95500549  0.37319102  0.78807265     0.12950
C4612       C  0.97233437  0.37399268  0.80429087    -0.21400
C4613       C  0.99514664  0.37779057  0.79815665    -0.07920
C4614       C  0.00109509  0.37978960  0.77468361     0.12940
C4615       C  0.02553112  0.38281272  0.76693810    -0.24750
H4616       H  0.98792828  0.38047813  0.74005835     0.14230
H4617       H  0.96767701  0.37242915  0.82222796     0.14260
C4618       C  0.93076578  0.37080534  0.79704549    -0.24700
H4619       H  0.02699618  0.38261155  0.74793486     0.04470
H4620       H  0.03635551  0.36863407  0.77378593     0.07700
H4621       H  0.03217691  0.39954178  0.77296767     0.07700
H4622       H  0.92325174  0.35440271  0.79113489     0.07680
H4623       H  0.92013415  0.38562867  0.79135388     0.07680
H4624       H  0.93001529  0.37051132  0.81609412     0.04450
C4625       C  0.85384550  0.28949289  0.77660771    -0.21350
C4626       C  0.87068607  0.28723066  0.75970218    -0.07920
C4627       C  0.88589244  0.26841580  0.75974277     0.12950
C4628       C  0.88451430  0.25246550  0.77769032    -0.21400
C4629       C  0.86838654  0.25548704  0.79524437    -0.07920
C4630       C  0.85249130  0.27376585  0.79450885     0.12940
C4631       C  0.83425904  0.27680916  0.81265521    -0.24750
H4632       H  0.84216013  0.30404996  0.77613054     0.14230
H4633       H  0.89642812  0.23814152  0.77846202     0.14260
C4634       C  0.90376078  0.26564174  0.74131507    -0.24700
H4635       H  0.82292911  0.29174899  0.80894008     0.04470
H4636       H  0.84231061  0.27969162  0.82964636     0.07700
H4637       H  0.82341849  0.26124095  0.81347250     0.07700
H4638       H  0.91533211  0.28069394  0.74132904     0.07680
H4639       H  0.89529706  0.26435025  0.72430208     0.07680
H4640       H  0.91431053  0.24993759  0.74400348     0.04450
C4641       C  0.89306947  0.26621379  0.65367153    -0.21350
C4642       C  0.87690089  0.27818117  0.64035555    -0.07920
C4643       C  0.86134760  0.26538932  0.62689489     0.12950
C4644       C  0.86291147  0.24114163  0.62639582    -0.21400
C4645       C  0.87923522  0.22921754  0.63965062    -0.07920
C4646       C  0.89458328  0.24207964  0.65331018     0.12940
C4647       C  0.91266465  0.23027326  0.66765850    -0.24750
H4648       H  0.90422018  0.27583269  0.66494960     0.14230
H4649       H  0.85175932  0.23150191  0.61513959     0.14260
C4650       C  0.84292905  0.27739427  0.61325558    -0.24700
H4651       H  0.92268766  0.24271542  0.67794044     0.04470
H4652       H  0.92485917  0.22079498  0.65648588     0.07700
H4653       H  0.90440282  0.21805140  0.67967374     0.07700
H4654       H  0.85089633  0.28944417  0.60087517     0.07680
H4655       H  0.83146904  0.28715963  0.62496311     0.07680
H4656       H  0.83229656  0.26504810  0.60348585     0.04450
C4657       C  0.59207227  0.76000943  0.87961472    -0.21350
C4658       C  0.61044837  0.77568396  0.87750458    -0.07920
C4659       C  0.63272133  0.76662182  0.87444538     0.12950
C4660       C  0.63587371  0.74258578  0.87312959    -0.21400
C4661       C  0.61744892  0.72703107  0.87495732    -0.07920
C4662       C  0.59525506  0.73601276  0.87829919     0.12940
C4663       C  0.57477709  0.72045267  0.87940682    -0.24750
H4664       H  0.57483194  0.76658128  0.88206388     0.14230
H4665       H  0.65296267  0.73582534  0.87013959     0.14260
C4666       C  0.65324283  0.78204773  0.87288761    -0.24700
H4667       H  0.55855980  0.73027054  0.88169543     0.04470
H4668       H  0.57662320  0.70846183  0.89411174     0.07700
H4669       H  0.57342438  0.71045893  0.86325696     0.07700
H4670       H  0.65461504  0.79249276  0.88874419     0.07680
H4671       H  0.65152647  0.79353913  0.85777741     0.07680
H4672       H  0.66941530  0.77208763  0.87094459     0.04450
C4673       C  0.63260826  0.86816191  0.77450788    -0.21350
C4674       C  0.61090779  0.87550612  0.78173711    -0.07920
C4675       C  0.59417345  0.88069353  0.76436000     0.12950
C4676       C  0.59963647  0.87814343  0.74087791    -0.21400
C4677       C  0.62110705  0.87026485  0.73377002    -0.07920
C4678       C  0.63794699  0.86548531  0.75098348     0.12940
C4679       C  0.66195824  0.85793391  0.74484242    -0.24750
H4680       H  0.64557369  0.86458221  0.78736153     0.14230
H4681       H  0.58667257  0.88144316  0.72794001     0.14260
C4682       C  0.56999864  0.88822933  0.76997744    -0.24700
H4683       H  0.67338028  0.85759049  0.76008917     0.04470
H4684       H  0.66943035  0.87002002  0.73218827     0.07700
H4685       H  0.66187804  0.84030242  0.73773015     0.07700
H4686       H  0.57004759  0.90553974  0.77787298     0.07680
H4687       H  0.56188304  0.87561221  0.78166834     0.07680
H4688       H  0.55905540  0.88947337  0.75441797     0.04450
C4689       C  0.60809579  0.98890528  0.90615709    -0.21350
C4690       C  0.62414145  0.97689054  0.89264672    -0.07920
C4691       C  0.63947065  0.98985157  0.87905981     0.12950
C4692       C  0.63848714  0.01419086  0.87944861    -0.21400
C4693       C  0.62196862  0.02609010  0.89254909    -0.07920
C4694       C  0.60698815  0.01307544  0.90645657     0.12940
C4695       C  0.58971943  0.02479732  0.92179586    -0.24750
H4696       H  0.59554461  0.97921088  0.91580407     0.14230
H4697       H  0.65097630  0.02397822  0.86982996     0.14260
C4698       C  0.65658326  0.97790880  0.86382114    -0.24700
H4699       H  0.57909220  0.01223943  0.93131230     0.04470
H4700       H  0.57819565  0.03581893  0.91129570     0.07700
H4701       H  0.59858664  0.03559199  0.93465826     0.07700
H4702       H  0.64751825  0.96724859  0.85096926     0.07680
H4703       H  0.66787888  0.96670662  0.87438691     0.07680
H4704       H  0.66750059  0.99034996  0.85446499     0.04450
C4705       C  0.63830648  0.88804985  0.99256213    -0.21350
C4706       C  0.62085877  0.87328331  0.98564736    -0.07920
C4707       C  0.60831716  0.86152885  0.00338816     0.12950
C4708       C  0.61195708  0.86683314  0.02672130    -0.21400
C4709       C  0.62795900  0.88311290  0.03348132    -0.07920
C4710       C  0.64227439  0.89289409  0.01602933     0.12940
C4711       C  0.66209612  0.90841702  0.02163555    -0.24750
H4712       H  0.64848446  0.89644251  0.97949825     0.14230
H4713       H  0.60152662  0.85876290  0.03980678     0.14260
C4714       C  0.59071065  0.84325676  0.99849066    -0.24700
H4715       H  0.67273643  0.91209755  0.00627388     0.04470
H4716       H  0.67341249  0.90006159  0.03454439     0.07700
H4717       H  0.65574920  0.92517067  0.02809807     0.07700
H4718       H  0.59823634  0.82979339  0.98727724     0.07680
H4719       H  0.57523628  0.85097991  0.99047910     0.07680
H4720       H  0.58480813  0.83457543  0.01439432     0.04450
C4721       C  0.38769420  0.76339577  0.12489698    -0.21350
C4722       C  0.36919544  0.77908005  0.12696908    -0.07920
C4723       C  0.34695297  0.77028605  0.12954866     0.12950
C4724       C  0.34380914  0.74634164  0.13010916    -0.21400
C4725       C  0.36227803  0.73054411  0.12811455    -0.07920
C4726       C  0.38456502  0.73937165  0.12554270     0.12940
C4727       C  0.40507073  0.72368743  0.12388678    -0.24750
H4728       H  0.40481709  0.77005280  0.12237407     0.14230
H4729       H  0.32653171  0.73990673  0.13206577     0.14260
C4730       C  0.32639884  0.78601139  0.13071094    -0.24700
H4731       H  0.42127063  0.73346107  0.12227126     0.04470
H4732       H  0.40345012  0.71253472  0.10855904     0.07700
H4733       H  0.40627151  0.71287236  0.13954793     0.07700
H4734       H  0.32536627  0.79658227  0.11486744     0.07680
H4735       H  0.32786733  0.79744759  0.14584129     0.07680
H4736       H  0.31016095  0.77629013  0.13232135     0.04450
C4737       C  0.23766990  0.86538660  0.14690410    -0.21350
C4738       C  0.22185964  0.87092686  0.12925308    -0.07920
C4739       C  0.23057324  0.87898980  0.10825035     0.12950
C4740       C  0.25449414  0.88095622  0.10536755    -0.21400
C4741       C  0.27046434  0.87504726  0.12285604    -0.07920
C4742       C  0.26165981  0.86734956  0.14403374     0.12940
C4743       C  0.27730176  0.86120979  0.16365182    -0.24750
H4744       H  0.23117764  0.85900013  0.16311034     0.14230
H4745       H  0.26070577  0.88691792  0.08890127     0.14260
C4746       C  0.21486281  0.88454981  0.08846884    -0.24700
H4747       H  0.26754397  0.85574492  0.17906239     0.04470
H4748       H  0.28773462  0.87633019  0.16844739     0.07700
H4749       H  0.28876214  0.84681678  0.15858087     0.07700
H4750       H  0.20295868  0.89863188  0.09338646     0.07680
H4751       H  0.20484332  0.86912953  0.08373252     0.07680
H4752       H  0.22452667  0.89017074  0.07304998     0.04450
C4753       C  0.48439865  0.90087656  0.11718039    -0.21350
C4754       C  0.47255128  0.88585738  0.13179462    -0.07920
C4755       C  0.48564273  0.87044352  0.14540677     0.12950
C4756       C  0.50994464  0.87093548  0.14459357    -0.21400
C4757       C  0.52172264  0.88586578  0.12974182    -0.07920
C4758       C  0.50855301  0.90118294  0.11610739     0.12940
C4759       C  0.52008152  0.91799800  0.10024090    -0.24750
H4760       H  0.47459601  0.91185651  0.10574211     0.14230
H4761       H  0.51979727  0.85998165  0.15601818     0.14260
C4762       C  0.47387548  0.85320419  0.16054220    -0.24700
H4763       H  0.50742404  0.92830425  0.09032615     0.04470
H4764       H  0.53110512  0.90855460  0.08787482     0.07700
H4765       H  0.53078330  0.93008298  0.11022823     0.07700
H4766       H  0.46323572  0.84157863  0.14994186     0.07680
H4767       H  0.46270710  0.86228249  0.17304799     0.07680
H4768       H  0.48640007  0.84254254  0.17025551     0.04450
C4769       C  0.49053423  0.88368958  0.01987285    -0.21350
C4770       C  0.46781973  0.88271485  0.01182249    -0.07920
C4771       C  0.46357333  0.88090128  0.98794990     0.12950
C4772       C  0.48190575  0.88126731  0.97295379    -0.21400
C4773       C  0.50445151  0.88357282  0.98064743    -0.07920
C4774       C  0.50909350  0.88423070  0.00441705     0.12940
C4775       C  0.53302225  0.88603077  0.01387960    -0.24750
H4776       H  0.49376477  0.88453688  0.03818291     0.14230
H4777       H  0.47847255  0.87970987  0.95473250     0.14260
C4778       C  0.43996315  0.87783673  0.97764360    -0.24700
H4779       H  0.53438561  0.90173201  0.02454605     0.04470
H4780       H  0.54622491  0.88698676  0.00025257     0.07700
H4781       H  0.53682985  0.87081634  0.02475797     0.07700
H4782       H  0.42960728  0.89372724  0.97978780     0.07680
H4783       H  0.43127883  0.86300639  0.98576581     0.07680
H4784       H  0.44064512  0.87439142  0.95891216     0.04450
C4785       C  0.38241790  0.98810439  0.14672536    -0.21350
C4786       C  0.36670067  0.98102807  0.13023035    -0.07920
C4787       C  0.35316018  0.99839146  0.11898719     0.12950
C4788       C  0.35793072  0.02186370  0.12239418    -0.21400
C4789       C  0.37534998  0.02889573  0.13711661    -0.07920
C4790       C  0.38672570  0.01157837  0.15064032     0.12940
C4791       C  0.40360130  0.01718774  0.16944622    -0.24750
H4792       H  0.39213226  0.97516398  0.15598939     0.14230
H4793       H  0.34853255  0.03478208  0.11278250     0.14260
C4794       C  0.33344593  0.99277209  0.10321406    -0.24700
H4795       H  0.40830498  0.00179160  0.17972118     0.04470
H4796       H  0.39592599  0.02986547  0.18145309     0.07700
H4797       H  0.41976470  0.02382725  0.16203539     0.07700
H4798       H  0.32168826  0.98053146  0.11176798     0.07680
H4799       H  0.33987765  0.98556869  0.08681518     0.07680
H4800       H  0.32321397  0.00828331  0.09873572     0.04450
C4801       C  0.25847169  0.10005590  0.86733846    -0.21350
C4802       C  0.27263226  0.11817159  0.87461868    -0.07920
C4803       C  0.26210581  0.13864364  0.88228801     0.12950
C4804       C  0.23792445  0.14064301  0.88194874    -0.21400
C4805       C  0.22383917  0.12242579  0.87477477    -0.07920
C4806       C  0.23439862  0.10201630  0.86707674     0.12940
C4807       C  0.22026860  0.08253211  0.85788050    -0.24750
H4808       H  0.26637519  0.08404339  0.86199009     0.14230
H4809       H  0.22993177  0.15672468  0.88690767     0.14260
C4810       C  0.27627035  0.15806620  0.89143980    -0.24700
H4811       H  0.23114396  0.06775101  0.85258059     0.04470
H4812       H  0.21034717  0.08838562  0.84267074     0.07700
H4813       H  0.20821902  0.07653569  0.87131636     0.07700
H4814       H  0.28812177  0.16421555  0.87790233     0.07680
H4815       H  0.28638315  0.15210238  0.90647893     0.07680
H4816       H  0.26538999  0.17274887  0.89698272     0.04450
C4817       C  0.34988254  0.12071225  0.77456826    -0.21350
C4818       C  0.37241306  0.11962903  0.78251013    -0.07920
C4819       C  0.39051871  0.11923948  0.76607527     0.12950
C4820       C  0.38557193  0.12043195  0.74234091    -0.21400
C4821       C  0.36296823  0.12169049  0.73436386    -0.07920
C4822       C  0.34485601  0.12148495  0.75092396     0.12940
C4823       C  0.31990867  0.12127534  0.74403906    -0.24750
H4824       H  0.33604435  0.12006340  0.78696356     0.14230
H4825       H  0.39945481  0.12090673  0.72999351     0.14260
C4826       C  0.41527113  0.11811694  0.77345165    -0.24700
H4827       H  0.30851742  0.11787837  0.75891942     0.04470
H4828       H  0.31688013  0.10757932  0.73118938     0.07700
H4829       H  0.31473367  0.13820064  0.73698288     0.07700
H4830       H  0.41908162  0.10139939  0.78176165     0.07680
H4831       H  0.41892636  0.13227742  0.78560320     0.07680
H4832       H  0.42710793  0.11981277  0.75862539     0.04450
C4833       C  0.50971697  0.14270960  0.87984867    -0.21350
C4834       C  0.52290902  0.12431277  0.88867523    -0.07920
C4835       C  0.51127374  0.10599531  0.89929471     0.12950
C4836       C  0.48715112  0.10618738  0.90035548    -0.21400
C4837       C  0.47385243  0.12430812  0.89119544    -0.07920
C4838       C  0.48542589  0.14267380  0.88053389     0.12940
C4839       C  0.47214561  0.16190579  0.86943102    -0.24750
H4840       H  0.51851885  0.15746080  0.87281237     0.14230
H4841       H  0.47845991  0.09152490  0.90771920     0.14260
C4842       C  0.52440107  0.08636039  0.90999973    -0.24700
H4843       H  0.48368861  0.17498598  0.86188235     0.04470
H4844       H  0.46111275  0.17043975  0.88242357     0.07700
H4845       H  0.46120311  0.15501824  0.85549103     0.07700
H4846       H  0.53548818  0.09280889  0.92403739     0.07680
H4847       H  0.53526317  0.07792181  0.89679707     0.07680
H4848       H  0.51277954  0.07324508  0.91736068     0.04450
C4849       C  0.48398838  0.96941986  0.88866251    -0.21350
C4850       C  0.50639718  0.97701449  0.89210367    -0.07920
C4851       C  0.51088533  0.00063961  0.89403368     0.12950
C4852       C  0.49227112  0.01614095  0.89380081    -0.21400
C4853       C  0.46967622  0.00810196  0.89177712    -0.07920
C4854       C  0.46558907  0.98439993  0.88855723     0.12940
C4855       C  0.44210475  0.97434314  0.88422898    -0.24750
H4856       H  0.48071239  0.95131605  0.88604429     0.14230
H4857       H  0.49527026  0.03439240  0.89557015     0.14260
C4858       C  0.53493665  0.00926633  0.89682059    -0.24700
H4859       H  0.44296208  0.95581691  0.87983782     0.04470
H4860       H  0.43373538  0.98325935  0.86958469     0.07700
H4861       H  0.43135276  0.97569837  0.89988428     0.07700
H4862       H  0.54537554  0.00438000  0.88164594     0.07680
H4863       H  0.54268556  0.00159678  0.91245347     0.07680
H4864       H  0.53532423  0.02824228  0.89851129     0.04450
C4865       C  0.36681946  0.11122533  0.02606864    -0.21350
C4866       C  0.37423956  0.13268004  0.03307613    -0.07920
C4867       C  0.37855647  0.14968020  0.01594318     0.12950
C4868       C  0.37641699  0.14422771  0.99236428    -0.21400
C4869       C  0.37001948  0.12225306  0.98520422    -0.07920
C4870       C  0.36479377  0.10560766  0.00271397     0.12940
C4871       C  0.35798246  0.08120585  0.99758337    -0.24750
H4872       H  0.36374436  0.09826553  0.03905734     0.14230
H4873       H  0.37984143  0.15719302  0.97947798     0.14260
C4874       C  0.38501642  0.17386811  0.02230266    -0.24700
H4875       H  0.35647903  0.07053684  0.01331793     0.04470
H4876       H  0.37128500  0.07309375  0.98670472     0.07700
H4877       H  0.34097488  0.08082598  0.98908412     0.07700
H4878       H  0.40238346  0.17423406  0.02997495     0.07680
H4879       H  0.37231638  0.18097945  0.03461776     0.07680
H4880       H  0.38531996  0.18532586  0.00705593     0.04450
C4881       C  0.38584819  0.99284769  0.01589723    -0.21350
C4882       C  0.37458895  0.97228116  0.01088200    -0.07920
C4883       C  0.36218201  0.96988640  0.99026693     0.12950
C4884       C  0.36229733  0.98778723  0.97451740    -0.21400
C4885       C  0.37469767  0.00777086  0.97872828    -0.07920
C4886       C  0.38629347  0.01073510  0.99975563     0.12940
C4887       C  0.39986504  0.03191344  0.00521564    -0.24750
H4888       H  0.39507067  0.99456596  0.03196177     0.14230
H4889       H  0.35327572  0.98587877  0.95835635     0.14260
C4890       C  0.34883874  0.94847303  0.98469386    -0.24700
H4891       H  0.41793307  0.02704838  0.00882628     0.04470
H4892       H  0.39252053  0.04041692  0.02061932     0.07700
H4893       H  0.39989680  0.04443914  0.99090521     0.07700
H4894       H  0.33627964  0.94495884  0.99854699     0.07680
H4895       H  0.36062916  0.93358652  0.98283390     0.07680
H4896       H  0.33921614  0.95022088  0.96833114     0.04450
C4897       C  0.38862549  0.62278832  0.77652797    -0.21350
C4898       C  0.37103040  0.63766992  0.78305789    -0.07920
C4899       C  0.35699727  0.64748461  0.76531693     0.12950
C4900       C  0.36221008  0.64349352  0.74196518    -0.21400
C4901       C  0.38076537  0.62973413  0.73539519    -0.07920
C4902       C  0.39367643  0.61851412  0.75325836     0.12940
C4903       C  0.41306247  0.60184994  0.74856988    -0.24750
H4904       H  0.39902982  0.61490279  0.78981424     0.14230
H4905       H  0.35192061  0.65158307  0.72870628     0.14260
C4906       C  0.33612676  0.66203419  0.77043588    -0.24700
H4907       H  0.41986280  0.59393500  0.76455157     0.04470
H4908       H  0.42762261  0.61086019  0.74036385     0.07700
H4909       H  0.40693235  0.58761313  0.73756653     0.07700
H4910       H  0.34123531  0.67859179  0.77816574     0.07680
H4911       H  0.32445855  0.65264231  0.78214925     0.07680
H4912       H  0.32627137  0.66623214  0.75465205     0.04450
C4913       C  0.44967701  0.78581606  0.88692578    -0.21350
C4914       C  0.45716024  0.76296863  0.88534217    -0.07920
C4915       C  0.48085203  0.75809953  0.88421659     0.12950
C4916       C  0.49642063  0.77633524  0.88434057    -0.21400
C4917       C  0.48880836  0.79917590  0.88590045    -0.07920
C4918       C  0.46504796  0.80396415  0.88748997     0.12940
C4919       C  0.45546984  0.82788304  0.89079773    -0.24750
H4920       H  0.43151593  0.78959184  0.88832535     0.14230
H4921       H  0.51464875  0.77273351  0.88341611     0.14260
C4922       C  0.48982774  0.73393297  0.88292675    -0.24700
H4923       H  0.43658784  0.82786715  0.89322480     0.04470
H4924       H  0.45901008  0.83854971  0.87544276     0.07700
H4925       H  0.46310371  0.83580074  0.90632641     0.07700
H4926       H  0.48205379  0.72493630  0.86808591     0.07680
H4927       H  0.48559140  0.72492575  0.89912088     0.07680
H4928       H  0.50874906  0.73337600  0.88086649     0.04450
C4929       C  0.48117896  0.61787933  0.86923600    -0.21350
C4930       C  0.47506745  0.63832938  0.88030606    -0.07920
C4931       C  0.49333640  0.65244517  0.88880032     0.12950
C4932       C  0.51640106  0.64628920  0.88497968    -0.21400
C4933       C  0.52240891  0.62656829  0.87290623    -0.07920
C4934       C  0.50440359  0.61175769  0.86548240     0.12940
C4935       C  0.50927573  0.58914290  0.85385019    -0.24750
H4936       H  0.46769415  0.60670797  0.86318860     0.14230
H4937       H  0.52995616  0.65751589  0.89078043     0.14260
C4938       C  0.48929713  0.67455548  0.90162253    -0.24700
H4939       H  0.49345349  0.57889814  0.85155854     0.04470
H4940       H  0.52135809  0.57880437  0.86442138     0.07700
H4941       H  0.51653024  0.59203106  0.83650958     0.07700
H4942       H  0.47986169  0.67116261  0.91780081     0.07680
H4943       H  0.47961843  0.68661766  0.89051210     0.07680
H4944       H  0.50551380  0.68319674  0.90643518     0.04450
C4945       C  0.36175285  0.61630748  0.99117198    -0.21350
C4946       C  0.37835913  0.63212292  0.98474462    -0.07920
C4947       C  0.39189418  0.64243184  0.00244873     0.12950
C4948       C  0.38633642  0.63887867  0.02569970    -0.21400
C4949       C  0.36816483  0.62483961  0.03211804    -0.07920
C4950       C  0.35666549  0.61216646  0.01443370     0.12940
C4951       C  0.33887371  0.59409832  0.01937242    -0.24750
H4952       H  0.35200738  0.60777592  0.97787663     0.14230
H4953       H  0.39583917  0.64774402  0.03893763     0.14260
C4954       C  0.41242041  0.65728355  0.99741915    -0.24700
H4955       H  0.33360992  0.58481859  0.00360718     0.04470
H4956       H  0.32314713  0.60209385  0.02651627     0.07700
H4957       H  0.34595728  0.58110544  0.03143928     0.07700
H4958       H  0.40691338  0.67408112  0.99029677     0.07680
H4959       H  0.42411065  0.64833439  0.98529362     0.07680
H4960       H  0.42241993  0.66102555  0.01318221     0.04450
C4961       C  0.35163684  0.76695560  0.98212384    -0.21350
C4962       C  0.36948284  0.75070723  0.98146004    -0.07920
C4963       C  0.38650862  0.75108711  0.99878422     0.12950
C4964       C  0.38663259  0.76933382  0.01449141    -0.21400
C4965       C  0.37046116  0.78721129  0.01304395    -0.07920
C4966       C  0.35194056  0.78530256  0.99753722     0.12940
C4967       C  0.33256500  0.80257820  0.99676168    -0.24750
H4968       H  0.33802515  0.76613878  0.96949276     0.14230
H4969       H  0.40042283  0.77046415  0.02689518     0.14260
C4970       C  0.40530003  0.73328889  0.00021190    -0.24700
H4971       H  0.31855267  0.79694187  0.98520951     0.04470
H4972       H  0.33870299  0.81928587  0.99012413     0.07700
H4973       H  0.32519796  0.80481960  0.01418643     0.07700
H4974       H  0.41609724  0.73390597  0.98455130     0.07680
H4975       H  0.39768502  0.71599108  0.00217088     0.07680
H4976       H  0.41671099  0.73619130  0.01517188     0.04450
C4977       C  0.23761391  0.61099548  0.88681532    -0.21350
C4978       C  0.22309465  0.63027729  0.89020690    -0.07920
C4979       C  0.23342421  0.65162819  0.89451236     0.12950
C4980       C  0.25747410  0.65322008  0.89505966    -0.21400
C4981       C  0.27213708  0.63420478  0.89119385    -0.07920
C4982       C  0.26189733  0.61279109  0.88678461     0.12940
C4983       C  0.27644723  0.59208193  0.88154228    -0.24750
H4984       H  0.22986004  0.59430598  0.88447272     0.14230
H4985       H  0.26497922  0.66986817  0.89819636     0.14260
C4986       C  0.21965227  0.67303458  0.89943483    -0.24700
H4987       H  0.26581809  0.57667417  0.87832654     0.04470
H4988       H  0.28795577  0.58837324  0.89626809     0.07700
H4989       H  0.28695174  0.59536144  0.86600327     0.07700
H4990       H  0.20091372  0.67035064  0.89898914     0.07680
H4991       H  0.22369901  0.68630864  0.88640478     0.07680
H4992       H  0.22409946  0.67953454  0.91675394     0.04450
C4993       C  0.12740217  0.99341317  0.89566336    -0.21350
C4994       C  0.13214362  0.97910587  0.87670849    -0.07920
C4995       C  0.13667569  0.98936125  0.85530746     0.12950
C4996       C  0.13574528  0.01341118  0.85320877    -0.21400
C4997       C  0.13074550  0.02779899  0.87204981    -0.07920
C4998       C  0.12633795  0.01756367  0.89353065     0.12940
C4999       C  0.11983664  0.03195934  0.91394915    -0.24750
H5000       H  0.12479535  0.98560220  0.91234889     0.14230
H5001       H  0.13877896  0.02110926  0.83653557     0.14260
C5002       C  0.14330165  0.97498982  0.83486413    -0.24700
H5003       H  0.11663746  0.02123816  0.92938005     0.04470
H5004       H  0.10395817  0.04185702  0.91013221     0.07700
H5005       H  0.13389629  0.04403420  0.91797840     0.07700
H5006       H  0.12934607  0.96278412  0.83085527     0.07680
H5007       H  0.15925710  0.96521047  0.83867194     0.07680
H5008       H  0.14641958  0.98570271  0.81940731     0.04450
C5009       C  0.13386199  0.89425428  0.99860530    -0.21350
C5010       C  0.12433216  0.87902932  0.98222986    -0.07920
C5011       C  0.11106512  0.86068442  0.99035244     0.12950
C5012       C  0.10894356  0.85725996  0.01423671    -0.21400
C5013       C  0.11997977  0.87144694  0.03066277    -0.07920
C5014       C  0.13204522  0.89065119  0.02249805     0.12940
C5015       C  0.14355092  0.90707030  0.03867083    -0.24750
H5016       H  0.14371558  0.90879842  0.99267056     0.14230
H5017       H  0.09902696  0.84270644  0.01999468     0.14260
C5018       C  0.09994641  0.84409949  0.97406876    -0.24700
H5019       H  0.15220216  0.92120538  0.02933244     0.04470
H5020       H  0.15673517  0.89783971  0.04892409     0.07700
H5021       H  0.13060246  0.91486406  0.05029447     0.07700
H5022       H  0.11323646  0.83544628  0.96348324     0.07680
H5023       H  0.08778006  0.85345890  0.96272503     0.07680
H5024       H  0.09022728  0.83062909  0.98332821     0.04450
C5025       C  0.27061527  0.88287936  0.96729196    -0.21350
C5026       C  0.24862520  0.87818667  0.97562568    -0.07920
C5027       C  0.24505271  0.87499283  0.99928770     0.12950
C5028       C  0.26411203  0.87540667  0.01402629    -0.21400
C5029       C  0.28633039  0.87874477  0.00530261    -0.07920
C5030       C  0.28953133  0.88315902  0.98168473     0.12940
C5031       C  0.31256728  0.88889529  0.97136641    -0.24750
H5032       H  0.27309293  0.88615469  0.94913092     0.14230
H5033       H  0.26175582  0.87270372  0.03229031     0.14260
C5034       C  0.22150077  0.87059888  0.00876712    -0.24700
H5035       H  0.31118072  0.89366343  0.95295132     0.04470
H5036       H  0.32420940  0.87380706  0.97236895     0.07700
H5037       H  0.32018103  0.90369826  0.98052063     0.07700
H5038       H  0.21431092  0.85488827  0.00086964     0.07680
H5039       H  0.21008516  0.88541376  0.00489702     0.07680
H5040       H  0.22187261  0.86815692  0.02767728     0.04450
C5041       C  0.26755342  0.00246969  0.88230436    -0.21350
C5042       C  0.29041581  0.99519503  0.88482274    -0.07920
C5043       C  0.29540820  0.97167352  0.88853554     0.12950
C5044       C  0.27751628  0.95607157  0.88861870    -0.21400
C5045       C  0.25475319  0.96311874  0.88549084    -0.07920
C5046       C  0.24952763  0.98661099  0.88262126     0.12940
C5047       C  0.22525960  0.99490462  0.87930838    -0.24750
H5048       H  0.26383530  0.02055439  0.87986539     0.14230
H5049       H  0.28140263  0.93807129  0.89149262     0.14260
C5050       C  0.31928147  0.96265696  0.89337086    -0.24700
H5051       H  0.22447373  0.01373138  0.87637816     0.04470
H5052       H  0.21495086  0.99104727  0.89482562     0.07700
H5053       H  0.21755876  0.98630137  0.86419924     0.07700
H5054       H  0.32680125  0.97191951  0.90818612     0.07680
H5055       H  0.33027801  0.96464671  0.87798166     0.07680
H5056       H  0.31930674  0.94409721  0.89775377     0.04450
C5057       C  0.23923929  0.76267094  0.89995814    -0.21350
C5058       C  0.24415638  0.78359007  0.88921058    -0.07920
C5059       C  0.26564652  0.78723530  0.87870409     0.12950
C5060       C  0.28216093  0.77015899  0.88013821    -0.21400
C5061       C  0.27782587  0.74974269  0.89183229    -0.07920
C5062       C  0.25615801  0.74552208  0.90145798     0.12940
C5063       C  0.25133502  0.72343068  0.91374615    -0.24750
H5064       H  0.22259744  0.76012627  0.90779870     0.14230
H5065       H  0.29880846  0.77288359  0.87232713     0.14260
C5066       C  0.27141245  0.80904063  0.86588507    -0.24700
H5067       H  0.23340475  0.72278215  0.92009637     0.04470
H5068       H  0.26308408  0.72149946  0.92860750     0.07700
H5069       H  0.25417140  0.70895915  0.90177360     0.07700
H5070       H  0.27228647  0.82376764  0.87788286     0.07680
H5071       H  0.25829988  0.81248141  0.85250354     0.07680
H5072       H  0.28833846  0.80783377  0.85723462     0.04450
C5073       C  0.12156679  0.77138034  0.90584136    -0.21350
C5074       C  0.12423861  0.77883783  0.88328690    -0.07920
C5075       C  0.12537916  0.76200933  0.86557395     0.12950
C5076       C  0.12451092  0.73832610  0.87100944    -0.21400
C5077       C  0.12253808  0.73075011  0.89375744    -0.07920
C5078       C  0.12080145  0.74784579  0.91140036     0.12940
C5079       C  0.11914916  0.74181298  0.93654929    -0.24750
H5080       H  0.12133062  0.78409129  0.91940730     0.14230
H5081       H  0.12520557  0.72569476  0.85739331     0.14260
C5082       C  0.12717227  0.76896437  0.84070775    -0.24700
H5083       H  0.12075017  0.75714098  0.94772313     0.04470
H5084       H  0.13315229  0.72973436  0.94123907     0.07700
H5085       H  0.10221363  0.73418208  0.94040100     0.07700
H5086       H  0.14377545  0.77745120  0.83733010     0.07680
H5087       H  0.11290819  0.78087359  0.83629624     0.07680
H5088       H  0.12612346  0.75390893  0.82909829     0.04450
C5089       C  0.15395421  0.88588412  0.76550220    -0.21350
C5090       C  0.13510693  0.88363942  0.78056483    -0.07920
C5091       C  0.11299032  0.88184027  0.77098083     0.12950
C5092       C  0.11027262  0.88301209  0.74688961    -0.21400
C5093       C  0.12914662  0.88535148  0.73192400    -0.07920
C5094       C  0.15125312  0.88689726  0.74148407     0.12940
C5095       C  0.17190815  0.89059126  0.72645231    -0.24750
H5096       H  0.17108279  0.88692212  0.77263177     0.14230
H5097       H  0.09318283  0.88244364  0.73963844     0.14260
C5098       C  0.09237656  0.87802132  0.78597555    -0.24700
H5099       H  0.18793479  0.89169731  0.73667034     0.04470
H5100       H  0.16989397  0.90684305  0.71665798     0.07700
H5101       H  0.17373580  0.87608952  0.71425560     0.07700
H5102       H  0.09022374  0.89267280  0.79793121     0.07680
H5103       H  0.09464845  0.86193228  0.79598858     0.07680
H5104       H  0.07643535  0.87647953  0.77569585     0.04450
C5105       C  0.39533101  0.76670270  0.65018094    -0.21350
C5106       C  0.37773519  0.77840492  0.63857268    -0.07920
C5107       C  0.36062481  0.76528146  0.62747979     0.12950
C5108       C  0.36208082  0.74100939  0.62742561    -0.21400
C5109       C  0.37976636  0.72936228  0.63905430    -0.07920
C5110       C  0.39655713  0.74254214  0.65055236     0.12940
C5111       C  0.41569507  0.73101777  0.66368709    -0.24750
H5112       H  0.40770128  0.77655287  0.65986266     0.14230
H5113       H  0.34966767  0.73112555  0.61783322     0.14260
C5114       C  0.34065781  0.77697387  0.61589584    -0.24700
H5115       H  0.42678782  0.74369251  0.67246283     0.04470
H5116       H  0.42664560  0.72079201  0.65192289     0.07700
H5117       H  0.40837271  0.71949629  0.67694097     0.07700
H5118       H  0.34703416  0.78870956  0.60233724     0.07680
H5119       H  0.33067564  0.78702740  0.62865929     0.07680
H5120       H  0.32893344  0.76440508  0.60781148     0.04450
C5121       C  0.48485441  0.87813535  0.62121724    -0.21350
C5122       C  0.47509189  0.87006357  0.64168101    -0.07920
C5123       C  0.48998239  0.86162026  0.65914191     0.12950
C5124       C  0.51390873  0.86200865  0.65598864    -0.21400
C5125       C  0.52370195  0.87036127  0.63575364    -0.07920
C5126       C  0.50890122  0.87798792  0.61792401     0.12940
C5127       C  0.51856699  0.88608136  0.59538287    -0.24750
H5128       H  0.47371917  0.88517566  0.60804754     0.14230
H5129       H  0.52505861  0.85483969  0.66907698     0.14260
C5130       C  0.48069011  0.85144144  0.68106009    -0.24700
H5131       H  0.50485817  0.89193587  0.58347234     0.04470
H5132       H  0.52811809  0.87190051  0.58692606     0.07700
H5133       H  0.53036397  0.90063836  0.59839292     0.07700
H5134       H  0.46847736  0.83751535  0.67693061     0.07680
H5135       H  0.47189790  0.86472971  0.69144083     0.07680
H5136       H  0.49453067  0.84402369  0.69190902     0.04450
C5137       C  0.37637914  0.76537224  0.75690539    -0.21350
C5138       C  0.37251325  0.78854928  0.76216167    -0.07920
C5139       C  0.36565947  0.79505315  0.78454990     0.12950
C5140       C  0.36440318  0.77839038  0.80142766    -0.21400
C5141       C  0.36944200  0.75545696  0.79666570    -0.07920
C5142       C  0.37486774  0.74854044  0.77411013     0.12940
C5143       C  0.37971555  0.72380705  0.76839451    -0.24750
H5144       H  0.38107010  0.76057175  0.73955275     0.14230
H5145       H  0.35942776  0.78338379  0.81865896     0.14260
C5146       C  0.35899571  0.81935227  0.79096689    -0.24700
H5147       H  0.38436303  0.72160976  0.75004131     0.04470
H5148       H  0.36426294  0.71336386  0.77180620     0.07700
H5149       H  0.39416084  0.71731992  0.77902185     0.07700
H5150       H  0.34581146  0.82599788  0.77888834     0.07680
H5151       H  0.37424888  0.83061287  0.79082686     0.07680
H5152       H  0.35164654  0.82035413  0.80852396     0.04450
C5153       C  0.46423329  0.86143297  0.78105869    -0.21350
C5154       C  0.46748536  0.87443081  0.76103885    -0.07920
C5155       C  0.48776579  0.88746979  0.75875620     0.12950
C5156       C  0.50265652  0.88922583  0.77762922    -0.21400
C5157       C  0.49771338  0.87847356  0.79864250    -0.07920
C5158       C  0.47876213  0.86342031  0.79996266     0.12940
C5159       C  0.47309895  0.84961548  0.82117475    -0.24750
H5160       H  0.44932870  0.85052458  0.78254635     0.14230
H5161       H  0.51760738  0.90007495  0.77629241     0.14260
C5162       C  0.49368454  0.90008460  0.73698765    -0.24700
H5163       H  0.45881260  0.83748441  0.81813862     0.04470
H5164       H  0.46752693  0.86116675  0.83525963     0.07700
H5165       H  0.48822958  0.83930499  0.82656200     0.07700
H5166       H  0.48097267  0.91392626  0.73369648     0.07680
H5167       H  0.49407155  0.88789413  0.72236650     0.07680
H5168       H  0.51080710  0.90823729  0.73805940     0.04450
C5169       C  0.36878392  0.98770985  0.62263052    -0.21350
C5170       C  0.36981612  0.97987262  0.64534295    -0.07920
C5171       C  0.36937730  0.99654582  0.66336085     0.12950
C5172       C  0.36837845  0.02012824  0.65814066    -0.21400
C5173       C  0.36733405  0.02790615  0.63553271    -0.07920
C5174       C  0.36742594  0.01141272  0.61750721     0.12940
C5175       C  0.36662487  0.01873227  0.59269091    -0.24750
H5176       H  0.36950650  0.97528783  0.60882006     0.14230
H5177       H  0.36745385  0.03260788  0.67189418     0.14260
C5178       C  0.36912441  0.98988556  0.68842109    -0.24700
H5179       H  0.36851091  0.00387017  0.58091313     0.04470
H5180       H  0.38079821  0.03083626  0.58909941     0.07700
H5181       H  0.34998267  0.02711778  0.58873243     0.07700
H5182       H  0.38608347  0.98296935  0.69361971     0.07680
H5183       H  0.35554375  0.97701637  0.69163183     0.07680
H5184       H  0.36557300  0.00484046  0.69970151     0.04450
C5185       C  0.36854266  0.98800787  0.75900482    -0.21350
C5186       C  0.37974778  0.96701807  0.76280003    -0.07920
C5187       C  0.39279759  0.96341336  0.78288976     0.12950
C5188       C  0.39312536  0.98048267  0.79952570    -0.21400
C5189       C  0.38103798  0.00100294  0.79634231    -0.07920
C5190       C  0.36905102  0.00523613  0.77577543     0.12940
C5191       C  0.35616530  0.02738036  0.77202762    -0.24750
H5192       H  0.35884395  0.99058236  0.74334102     0.14230
H5193       H  0.40261585  0.97769998  0.81531571     0.14260
C5194       C  0.40655248  0.94171308  0.78680858    -0.24700
H5195       H  0.34742156  0.02769386  0.75510021     0.04470
H5196       H  0.36823309  0.04201286  0.77267513     0.07700
H5197       H  0.34298294  0.02957320  0.78560728     0.07700
H5198       H  0.41865281  0.93901342  0.77233881     0.07680
H5199       H  0.39500950  0.92674141  0.78825268     0.07680
H5200       H  0.41674021  0.94254721  0.80288602     0.04450
C5201       C  0.28470353  0.89764408  0.77749195    -0.21350
C5202       C  0.28336290  0.88171265  0.75953712    -0.07920
C5203       C  0.26403475  0.86718164  0.75811679     0.12950
C5204       C  0.24796774  0.86742499  0.77600740    -0.21400
C5205       C  0.25086982  0.88150726  0.79528779    -0.07920
C5206       C  0.26884438  0.89772366  0.79545518     0.12940
C5207       C  0.27185255  0.91501997  0.81447263    -0.24750
H5208       H  0.29900016  0.90941639  0.77813384     0.14230
H5209       H  0.23381394  0.85548132  0.77554704     0.14260
C5210       C  0.26058670  0.85057678  0.73862668    -0.24700
H5211       H  0.28539016  0.92768915  0.81034463     0.04470
H5212       H  0.27714024  0.90631341  0.83057783     0.07700
H5213       H  0.25561754  0.92467286  0.81718304     0.07700
H5214       H  0.27470442  0.83772928  0.73835505     0.07680
H5215       H  0.25994892  0.86005842  0.72209723     0.07680
H5216       H  0.24426532  0.84101758  0.74034096     0.04450
C5217       C  0.26305288  0.87261695  0.62520171    -0.21350
C5218       C  0.27413228  0.88528061  0.64241727    -0.07920
C5219       C  0.26040981  0.89780880  0.65816761     0.12950
C5220       C  0.23633074  0.89777195  0.65610040    -0.21400
C5221       C  0.22521113  0.88512564  0.63897593    -0.07920
C5222       C  0.23885554  0.87267269  0.62312664     0.12940
C5223       C  0.22780221  0.85960652  0.60385951    -0.24750
H5224       H  0.27331883  0.86217235  0.61370138     0.14230
H5225       H  0.22608763  0.90829695  0.66755111     0.14260
C5226       C  0.27122723  0.91150164  0.67719751    -0.24700
H5227       H  0.24071764  0.85057242  0.59310643     0.04470
H5228       H  0.21802688  0.87158600  0.59265889     0.07700
H5229       H  0.21592475  0.84663269  0.61103670     0.07700
H5230       H  0.28328430  0.92417731  0.66979193     0.07680
H5231       H  0.28067369  0.89996116  0.68909622     0.07680
H5232       H  0.25820295  0.92099775  0.68740904     0.04450
loop_ 
_geom_bond_atom_site_label_1 
_geom_bond_atom_site_label_2 
_geom_bond_distance 
_geom_bond_site_symmetry_2 
_ccdc_geom_bond_type 
N1            N2   1.316       .  A
N1            N7   1.309       .  A
N1          Mn30   2.179       .  S
N2            C9   1.353       .  A
N3            N5   1.309       .  A
N3            N4   1.321       .  A
N3          Mn19   2.182       .  S
N4           C10   1.354       .  A
N5            N6   1.308       .  A
N5          Mn30   2.153       .  S
N6           C10   1.344       .  A
N7            N8   1.319       .  A
N7          Mn19   2.174       .  S
N8            C9   1.352       .  A
C9         C5202   1.479       .  S
C10        C5138   1.458       .  S
N11          N17   1.320       .  A
N11          N12   1.337       .  A
N11         Mn41   2.309       .  S
N12          C20   1.372       .  A
N13          N14   1.311       .  A
N13          N15   1.320       .  A
N13         Mn19   2.148       .  S
N14          C21   1.336       .  A
N15          N16   1.338       .  A
N15         Mn41   2.312       .  S
N16          C21   1.373       .  A
N17          N18   1.311       .  A
N17         Mn19   2.146       .  S
N18          C20   1.336       .  A
Mn19        Cl43   2.533       .  S
C20        C5106   1.488       .  S
C21        C5218   1.493       .  S
N22          N23   1.313       .  A
N22          N28   1.308       .  A
N22         Mn30   2.169       .  S
N23          C31   1.351       .  A
N24          N26   1.310       .  A
N24          N25   1.318       .  A
N24         Mn42   2.178       .  S
N25          C32   1.350       .  A
N26          N27   1.314       .  A
N26         Mn30   2.163       .  S
N27          C32   1.348       .  A
N28          N29   1.322       .  A
N28         Mn42   2.186       .  S
N29          C31   1.356       .  A
Mn30        Cl43   2.533       .  S
C31        C5154   1.484       .  S
C32        C5186   1.454       .  S
N33          N34   1.339       .  A
N33          N39   1.318       .  A
N33         Mn41   2.314       .  S
N34          C44   1.376       .  A
N35          N36   1.309       .  A
N35          N37   1.319       .  A
N35         Mn42   2.138       .  S
N36          C45   1.334       .  A
N37          N38   1.339       .  A
N37         Mn41   2.315       .  S
N38          C45   1.374       .  A
N39          N40   1.307       .  A
N39         Mn42   2.137       .  S
N40          C44   1.333       .  A
Mn41        Cl43   2.557       .  S
Mn42        Cl43   2.530       .  S
C44        C5170   1.502       .  S
C45        C5122   1.494       .  S
N46          N47   1.320       .  A
N46          N52   1.308       .  A
N46         Mn75   2.182       .  S
N47          C54   1.356       .  A
N48          N50   1.308       .  A
N48          N49   1.310       .  A
N48         Mn64   2.149       .  S
N49          C55   1.345       .  A
N50          N51   1.319       .  A
N50         Mn75   2.178       .  S
N51          C55   1.353       .  A
N52          N53   1.314       .  A
N52         Mn64   2.164       .  S
N53          C54   1.348       .  A
C54        C5205   1.477       .  S
C55        C5058   1.449       .  S
N56          N62   1.308       .  A
N56          N57   1.324       .  A
N56         Mn86   2.190       .  S
N57          C65   1.356       .  A
N58          N59   1.311       .  A
N58          N60   1.310       .  A
N58         Mn64   2.161       .  S
N59          C66   1.348       .  A
N60          N61   1.321       .  A
N60         Mn86   2.183       .  S
N61          C66   1.354       .  A
N62          N63   1.308       .  A
N62         Mn64   2.151       .  S
N63          C65   1.346       .  A
Mn64        Cl88   2.508       .  S
C65        C5026   1.462       .  S
C66        C5045   1.466       .  S
N67          N68   1.310       .  A
N67          N73   1.318       .  A
N67         Mn75   2.140       .  S
N68          C76   1.335       .  A
N69          N71   1.319       .  A
N69          N70   1.337       .  A
N69         Mn87   2.312       .  S
N70          C77   1.374       .  A
N71          N72   1.310       .  A
N71         Mn75   2.141       .  S
N72          C77   1.337       .  A
N73          N74   1.338       .  A
N73         Mn87   2.312       .  S
N74          C76   1.375       .  A
Mn75        Cl88   2.534       .  S
C76        C5074   1.496       .  S
C77        C5090   1.498       .  S
N78          N79   1.312       .  A
N78          N84   1.320       .  A
N78         Mn86   2.147       .  S
N79          C89   1.337       .  A
N80          N81   1.339       .  A
N80          N82   1.319       .  A
N80         Mn87   2.319       .  S
N81          C90   1.377       .  A
N82          N83   1.307       .  A
N82         Mn86   2.133       .  S
N83          C90   1.335       .  A
N84          N85   1.335       .  A
N84         Mn87   2.299       .  S
N85          C89   1.370       .  A
Mn86        Cl88   2.538       .  S
Mn87        Cl88   2.563       .  S
C89        C4994   1.486       .  S
C90        C5010   1.503       .  S
N91          N92   1.323       .  A
N91          N97   1.309       .  A
N91        Mn120   2.191       .  S
N92          C99   1.356       .  A
N93          N95   1.308       .  A
N93          N94   1.315       .  A
N93        Mn109   2.169       .  S
N94         C100   1.352       .  A
N95          N96   1.321       .  A
N95        Mn120   2.191       .  S
N96         C100   1.355       .  A
N97          N98   1.311       .  A
N97        Mn109   2.158       .  S
N98          C99   1.348       .  A
C99        C4914   1.473       .  S
C100       C4962   1.480       .  S
N101        N107   1.308       .  A
N101        N102   1.318       .  A
N101       Mn131   2.174       .  S
N102        C110   1.351       .  A
N103        N104   1.311       .  A
N103        N105   1.308       .  A
N103       Mn109   2.163       .  S
N104        C111   1.349       .  A
N105        N106   1.319       .  A
N105       Mn131   2.163       .  S
N106        C111   1.350       .  A
N107        N108   1.311       .  A
N107       Mn109   2.155       .  S
N108        C110   1.349       .  A
Mn109      Cl133   2.534       .  S
C110       C5061   1.450       .  S
C111       C5141   1.457       .  S
N112        N113   1.305       .  A
N112        N118   1.318       .  A
N112       Mn120   2.131       .  S
N113        C121   1.331       .  A
N114        N116   1.319       .  A
N114        N115   1.341       .  A
N114       Mn132   2.322       .  S
N115        C122   1.379       .  A
N116        N117   1.306       .  A
N116       Mn120   2.143       .  S
N117        C122   1.333       .  A
N118        N119   1.338       .  A
N118       Mn132   2.307       .  S
N119        C121   1.377       .  A
Mn120      Cl133   2.509       .  S
C121       C4946   1.500       .  S
C122       C4930   1.517       .  S
N123        N124   1.309       .  A
N123        N129   1.317       .  A
N123       Mn131   2.134       .  S
N124        C134   1.334       .  A
N125        N126   1.344       .  A
N125        N127   1.317       .  A
N125       Mn132   2.337       .  S
N126        C135   1.381       .  A
N127        N128   1.306       .  A
N127       Mn131   2.119       .  S
N128        C135   1.331       .  A
N129        N130   1.338       .  A
N129       Mn132   2.316       .  S
N130        C134   1.377       .  A
Mn131      Cl133   2.511       .  S
Mn132      Cl133   2.590       .  S
C134       C4898   1.508       .  S
C135       C4981   1.504       .  S
N136        N137   1.320       .  A
N136        N142   1.309       .  A
N136       Mn165   2.177       .  S
N137        C144   1.353       .  A
N138        N140   1.308       .  A
N138        N139   1.313       .  A
N138       Mn154   2.162       .  S
N139        C145   1.349       .  A
N140        N141   1.319       .  A
N140       Mn165   2.182       .  S
N141        C145   1.352       .  A
N142        N143   1.312       .  A
N142       Mn154   2.161       .  S
N143        C144   1.347       .  A
C144       C5042   1.468   1_545  S
C145       C4885   1.454       .  S
N146        N152   1.307       .  A
N146        N147   1.321       .  A
N146       Mn176   2.178       .  S
N147        C155   1.354       .  A
N148        N149   1.313       .  A
N148        N150   1.310       .  A
N148       Mn154   2.169       .  S
N149        C156   1.348       .  A
N150        N151   1.319       .  A
N150       Mn176   2.171       .  S
N151        C156   1.351       .  A
N152        N153   1.308       .  A
N152       Mn154   2.153       .  S
N153        C155   1.345       .  A
Mn154      Cl178   2.520       .  S
C155       C4853   1.462       .  S
C156       C5189   1.454       .  S
N157        N158   1.303       .  A
N157        N163   1.316       .  A
N157       Mn165   2.126       .  S
N158        C166   1.329       .  A
N159        N161   1.319       .  A
N159        N160   1.337       .  A
N159       Mn177   2.315       .  S
N160        C167   1.374       .  A
N161        N162   1.310       .  A
N161       Mn165   2.137       .  S
N162        C167   1.336       .  A
N163        N164   1.343       .  A
N163       Mn177   2.323       .  S
N164        C166   1.382       .  A
Mn165      Cl178   2.517       .  S
C166       C4869   1.513       .  S
C167       C4802   1.493       .  S
N168        N169   1.311       .  A
N168        N174   1.319       .  A
N168       Mn176   2.138       .  S
N169        C179   1.336       .  A
N170        N171   1.341       .  A
N170        N172   1.318       .  A
N170       Mn177   2.327       .  S
N171        C180   1.378       .  A
N172        N173   1.306       .  A
N172       Mn176   2.119       .  S
N173        C180   1.330       .  A
N174        N175   1.337       .  A
N174       Mn177   2.315       .  S
N175        C179   1.374       .  A
Mn176      Cl178   2.525       .  S
Mn177      Cl178   2.574       .  S
C179       C4818   1.495       .  S
C180       C4837   1.492       .  S
N181        N182   1.321       .  A
N181        N187   1.309       .  A
N181       Mn210   2.182       .  S
N182        C189   1.354       .  A
N183        N185   1.308       .  A
N183        N184   1.308       .  A
N183       Mn199   2.156       .  S
N184        C190   1.345       .  A
N185        N186   1.323       .  A
N185       Mn210   2.185       .  S
N186        C190   1.356       .  A
N187        N188   1.315       .  A
N187       Mn199   2.178       .  S
N188        C189   1.350       .  A
C189       C4965   1.476       .  S
C190       C4770   1.468       .  S
N191        N197   1.308       .  A
N191        N192   1.319       .  A
N191       Mn221   2.170       .  S
N192        C200   1.350       .  A
N193        N194   1.313       .  A
N193        N195   1.308       .  A
N193       Mn199   2.168       .  S
N194        C201   1.350       .  A
N195        N196   1.318       .  A
N195       Mn221   2.162       .  S
N196        C201   1.349       .  A
N197        N198   1.314       .  A
N197       Mn199   2.169       .  S
N198        C200   1.350       .  A
Mn199      Cl223   2.540       .  S
C200       C4882   1.455       .  S
C201       C5029   1.463       .  S
N202        N203   1.309       .  A
N202        N208   1.321       .  A
N202       Mn210   2.137       .  S
N203        C211   1.332       .  A
N204        N206   1.320       .  A
N204        N205   1.336       .  A
N204       Mn222   2.310       .  S
N205        C212   1.373       .  A
N206        N207   1.310       .  A
N206       Mn210   2.142       .  S
N207        C212   1.336       .  A
N208        N209   1.340       .  A
N208       Mn222   2.331       .  S
N209        C211   1.376       .  A
Mn210      Cl223   2.530       .  S
C211       C4754   1.492       .  S
C212       C4722   1.494       .  S
N213        N214   1.309       .  A
N213        N219   1.317       .  A
N213       Mn221   2.137       .  S
N214        C224   1.337       .  A
N215        N216   1.341       .  A
N215        N217   1.316       .  A
N215       Mn222   2.322       .  S
N216        C225   1.380       .  A
N217        N218   1.305       .  A
N217       Mn221   2.123       .  S
N218        C225   1.330       .  A
N219        N220   1.340       .  A
N219       Mn222   2.320       .  S
N220        C224   1.378       .  A
Mn221      Cl223   2.516       .  S
Mn222      Cl223   2.563       .  S
C224       C4741   1.512       .  S
C225       C4786   1.508       .  S
N226        N227   1.322       .  A
N226        N232   1.308       .  A
N226       Mn255   2.186       .  S
N227        C234   1.357       .  A
N228        N230   1.306       .  A
N228        N229   1.307       .  A
N228       Mn244   2.150       .  S
N229        C235   1.348       .  A
N230        N231   1.323       .  A
N230       Mn255   2.182       .  S
N231        C235   1.356       .  A
N232        N233   1.313       .  A
N232       Mn244   2.170       .  S
N233        C234   1.348       .  A
C234       C5157   1.481       .  S
C235       C4850   1.462       .  S
N236        N242   1.307       .  A
N236        N237   1.323       .  A
N236       Mn266   2.183       .  S
N237        C245   1.355       .  A
N238        N239   1.313       .  A
N238        N240   1.308       .  A
N238       Mn244   2.166       .  S
N239        C246   1.348       .  A
N240        N241   1.319       .  A
N240       Mn266   2.171       .  S
N241        C246   1.354       .  A
N242        N243   1.309       .  A
N242       Mn244   2.157       .  S
N243        C245   1.350       .  A
Mn244      Cl268   2.506       .  S
C245       C4773   1.465       .  S
C246       C4917   1.470       .  S
N247        N248   1.308       .  A
N247        N253   1.320       .  A
N247       Mn255   2.128       .  S
N248        C256   1.331       .  A
N249        N251   1.319       .  A
N249        N250   1.341       .  A
N249       Mn267   2.333       .  S
N250        C257   1.379       .  A
N251        N252   1.308       .  A
N251       Mn255   2.135       .  S
N252        C257   1.334       .  A
N253        N254   1.341       .  A
N253       Mn267   2.327       .  S
N254        C256   1.377       .  A
Mn255      Cl268   2.537       .  S
C256       C4690   1.491       .  S
C257       C4674   1.513       .  S
N258        N259   1.311       .  A
N258        N264   1.319       .  A
N258       Mn266   2.145       .  S
N259        C269   1.339       .  A
N260        N261   1.345       .  A
N260        N262   1.316       .  A
N260       Mn267   2.338       .  S
N261        C270   1.384       .  A
N262        N263   1.304       .  A
N262       Mn266   2.119       .  S
N263        C270   1.328       .  A
N264        N265   1.337       .  A
N264       Mn267   2.316       .  S
N265        C269   1.375       .  A
Mn266      Cl268   2.528       .  S
Mn267      Cl268   2.568       .  S
C269       C4658   1.506       .  S
C270       C4706   1.516       .  S
N271        N272   1.336       .  A
N271        N277   1.319       .  A
N271       Mn300   2.300       .  S
N272        C279   1.371       .  A
N273        N275   1.317       .  A
N273        N274   1.305       .  A
N273       Mn289   2.120       .  S
N274        C280   1.333       .  A
N275        N276   1.339       .  A
N275       Mn300   2.313       .  S
N276        C280   1.376       .  A
N277        N278   1.312       .  A
N277       Mn289   2.149       .  S
N278        C279   1.337       .  A
C279       C4642   1.487       .  S
C280       C4562   1.498       .  S
N281        N287   1.307       .  A
N281        N282   1.305       .  A
N281       Mn311   2.138       .  S
N282        C290   1.341       .  A
N283        N284   1.317       .  A
N283        N285   1.308       .  A
N283       Mn289   2.160       .  S
N284        C291   1.349       .  A
N285        N286   1.314       .  A
N285       Mn311   2.171       .  S
N286        C291   1.349       .  A
N287        N288   1.325       .  A
N287       Mn289   2.198       .  S
N288        C290   1.360       .  A
Mn289      Cl313   2.537       .  S
C290       C4546   1.476       .  S
C291       C4626   1.449       .  S
N292        N293   1.335       .  A
N292        N298   1.320       .  A
N292       Mn300   2.296       .  S
N293        C301   1.370       .  A
N294        N296   1.320       .  A
N294        N295   1.310       .  A
N294       Mn312   2.142       .  S
N295        C302   1.337       .  A
N296        N297   1.336       .  A
N296       Mn300   2.308       .  S
N297        C302   1.373       .  A
N298        N299   1.312       .  A
N298       Mn312   2.152       .  S
N299        C301   1.337       .  A
Mn300      Cl313   2.560       .  S
C301       C4530   1.486       .  S
C302       C4594   1.493       .  S
N303        N304   1.305       .  A
N303        N309   1.308       .  A
N303       Mn311   2.134       .  S
N304        C314   1.339       .  A
N305        N306   1.320       .  A
N305        N307   1.309       .  A
N305       Mn312   2.182       .  S
N306        C315   1.356       .  A
N307        N308   1.314       .  A
N307       Mn311   2.171       .  S
N308        C315   1.349       .  A
N309        N310   1.325       .  A
N309       Mn312   2.201       .  S
N310        C314   1.360       .  A
Mn311      Cl313   2.500       .  S
Mn312      Cl313   2.544       .  S
C314       C4610   1.472       .  S
C315       C4578   1.472       .  S
N316        N317   1.321       .  A
N316        N322   1.309       .  A
N316       Mn345   2.181       .  S
N317        C324   1.354       .  A
N318        N320   1.308       .  A
N318        N319   1.314       .  A
N318       Mn334   2.165       .  S
N319        C325   1.351       .  A
N320        N321   1.321       .  A
N320       Mn345   2.190       .  S
N321        C325   1.355       .  A
N322        N323   1.313       .  A
N322       Mn334   2.175       .  S
N323        C324   1.352       .  A
C324       C4466   1.478       .  S
C325       C4450   1.482       .  S
N326        N332   1.309       .  A
N326        N327   1.319       .  A
N326       Mn356   2.169       .  S
N327        C335   1.350       .  A
N328        N329   1.315       .  A
N328        N330   1.309       .  A
N328       Mn334   2.167       .  S
N329        C336   1.349       .  A
N330        N331   1.317       .  A
N330       Mn356   2.164       .  S
N331        C336   1.348       .  A
N332        N333   1.312       .  A
N332       Mn334   2.169       .  S
N333        C335   1.350       .  A
Mn334      Cl358   2.548       .  S
C335       C4482   1.451       .  S
C336       C4629   1.449       .  S
N337        N338   1.305       .  A
N337        N343   1.319       .  A
N337       Mn345   2.134       .  S
N338        C346   1.334       .  A
N339        N341   1.320       .  A
N339        N340   1.334       .  A
N339       Mn357   2.302       .  S
N340        C347   1.372       .  A
N341        N342   1.312       .  A
N341       Mn345   2.151       .  S
N342        C347   1.339       .  A
N343        N344   1.340       .  A
N343       Mn357   2.318       .  S
N344        C346   1.378       .  A
Mn345      Cl358   2.519       .  S
C346       C4434   1.508       .  S
C347       C4418   1.499       .  S
N348        N349   1.310       .  A
N348        N354   1.318       .  A
N348       Mn356   2.137       .  S
N349        C359   1.336       .  A
N350        N351   1.338       .  A
N350        N352   1.317       .  A
N350       Mn357   2.315       .  S
N351        C360   1.376       .  A
N352        N353   1.310       .  A
N352       Mn356   2.132       .  S
N353        C360   1.334       .  A
N354        N355   1.339       .  A
N354       Mn357   2.323       .  S
N355        C359   1.376       .  A
Mn356      Cl358   2.520       .  S
Mn357      Cl358   2.566       .  S
C359       C4514   1.502       .  S
C360       C4498   1.494       .  S
N361        N362   1.322       .  A
N361        N367   1.306       .  A
N361       Mn390   2.164       .  S
N362        C369   1.354       .  A
N363        N365   1.307       .  A
N363        N364   1.311       .  A
N363       Mn379   2.157       .  S
N364        C370   1.348       .  A
N365        N366   1.319       .  A
N365       Mn390   2.169       .  S
N366        C370   1.351       .  A
N367        N368   1.308       .  A
N367       Mn379   2.159       .  S
N368        C369   1.350       .  A
C369       C4549   1.475       .  S
C370       C4485   1.452       .  S
N371        N377   1.309       .  A
N371        N372   1.324       .  A
N371       Mn401   2.199       .  S
N372        C380   1.357       .  A
N373        N374   1.312       .  A
N373        N375   1.308       .  A
N373       Mn379   2.170       .  S
N374        C381   1.350       .  A
N375        N376   1.322       .  A
N375       Mn401   2.184       .  S
N376        C381   1.356       .  A
N377        N378   1.309       .  A
N377       Mn379   2.148       .  S
N378        C380   1.342       .  A
Mn379      Cl403   2.514       .  S
C380       C4386   1.465       .  S
C381       C4338   1.483       .  S
N382        N383   1.306       .  A
N382        N388   1.318       .  A
N382       Mn390   2.121       .  S
N383        C391   1.331       .  A
N384        N386   1.317       .  A
N384        N385   1.339       .  A
N384       Mn402   2.318       .  S
N385        C392   1.377       .  A
N386        N387   1.308       .  A
N386       Mn390   2.129       .  S
N387        C392   1.336       .  A
N388        N389   1.340       .  A
N388       Mn402   2.318       .  S
N389        C391   1.376       .  A
Mn390      Cl403   2.539       .  S
C391       C4402   1.490       .  S
C392       C4322   1.510       .  S
N393        N394   1.313       .  A
N393        N399   1.322       .  A
N393       Mn401   2.158       .  S
N394        C404   1.338       .  A
N395        N396   1.337       .  A
N395        N397   1.322       .  A
N395       Mn402   2.312       .  S
N396        C405   1.372       .  A
N397        N398   1.310       .  A
N397       Mn401   2.148       .  S
N398        C405   1.335       .  A
N399        N400   1.335       .  A
N399       Mn402   2.304       .  S
N400        C404   1.370       .  A
Mn401      Cl403   2.542       .  S
Mn402      Cl403   2.544       .  S
C404       C4354   1.487       .  S
C405       C4370   1.486       .  S
N406        N407   1.319       .  A
N406        N412   1.307       .  A
N406       Mn435   2.156       .  S
N407        C414   1.351       .  A
N408        N410   1.308       .  A
N408        N409   1.310       .  A
N408       Mn424   2.155       .  S
N409        C415   1.349       .  A
N410        N411   1.321       .  A
N410       Mn435   2.180       .  S
N411        C415   1.353       .  A
N412        N413   1.311       .  A
N412       Mn424   2.169       .  S
N413        C414   1.352       .  A
C414       C4613   1.472   1_455  S
C415       C4277   1.454       .  S
N416        N422   1.310       .  A
N416        N417   1.321       .  A
N416       Mn446   2.188       .  S
N417        C425   1.353       .  A
N418        N419   1.309       .  A
N418        N420   1.309       .  A
N418       Mn424   2.156       .  S
N419        C426   1.344       .  A
N420        N421   1.325       .  A
N420       Mn446   2.197       .  S
N421        C426   1.359       .  A
N422        N423   1.313       .  A
N422       Mn424   2.168       .  S
N423        C425   1.348       .  A
Mn424      Cl448   2.510       .  S
C425       C4306   1.462       .  S
C426       C4469   1.479   1_455  S
N427        N428   1.303       .  A
N427        N433   1.316       .  A
N427       Mn435   2.109       .  S
N428        C436   1.330       .  A
N429        N431   1.319       .  A
N429        N430   1.337       .  A
N429       Mn447   2.313       .  S
N430        C437   1.372       .  A
N431        N432   1.313       .  A
N431       Mn435   2.144       .  S
N432        C437   1.337       .  A
N433        N434   1.343       .  A
N433       Mn447   2.332       .  S
N434        C436   1.383       .  A
Mn435      Cl448   2.528       .  S
C436       C4258   1.511       .  S
C437       C4226   1.492       .  S
N438        N439   1.313       .  A
N438        N444   1.322       .  A
N438       Mn446   2.152       .  S
N439        C449   1.337       .  A
N440        N441   1.339       .  A
N440        N442   1.320       .  A
N440       Mn447   2.319       .  S
N441        C450   1.376       .  A
N442        N443   1.309       .  A
N442       Mn446   2.139       .  S
N443        C450   1.333       .  A
N444        N445   1.335       .  A
N444       Mn447   2.307       .  S
N445        C449   1.370       .  A
Mn446      Cl448   2.537       .  S
Mn447      Cl448   2.567       .  S
C449       C4245   1.486       .  S
C450       C4293   1.496       .  S
N451        N452   1.320       .  A
N451        N457   1.311       .  A
N451       Mn480   2.182       .  S
N452        C459   1.354       .  A
N453        N455   1.311       .  A
N453        N454   1.312       .  A
N453       Mn469   2.170       .  S
N454        C460   1.350       .  A
N455        N456   1.321       .  A
N455       Mn480   2.188       .  S
N456        C460   1.353       .  A
N457        N458   1.315       .  A
N457       Mn469   2.179       .  S
N458        C459   1.350       .  A
C459       C4453   1.477       .  S
C460       C4309   1.460       .  S
N461        N467   1.309       .  A
N461        N462   1.319       .  A
N461       Mn491   2.179       .  S
N462        C470   1.352       .  A
N463        N464   1.314       .  A
N463        N465   1.309       .  A
N463       Mn469   2.178       .  S
N464        C471   1.353       .  A
N465        N466   1.318       .  A
N465       Mn491   2.162       .  S
N466        C471   1.349       .  A
N467        N468   1.317       .  A
N467       Mn469   2.184       .  S
N468        C470   1.353       .  A
Mn469      Cl493   2.545       .  S
C470       C4194   1.474       .  S
C471       C4389   1.465       .  S
N472        N473   1.310       .  A
N472        N478   1.319       .  A
N472       Mn480   2.135       .  S
N473        C481   1.333       .  A
N474        N476   1.320       .  A
N474        N475   1.338       .  A
N474       Mn492   2.322       .  S
N475        C482   1.375       .  A
N476        N477   1.313       .  A
N476       Mn480   2.150       .  S
N477        C482   1.338       .  A
N478        N479   1.338       .  A
N478       Mn492   2.316       .  S
N479        C481   1.374       .  A
Mn480      Cl493   2.527       .  S
C481       C4210   1.488       .  S
C482       C4146   1.504       .  S
N483        N484   1.309       .  A
N483        N489   1.317       .  A
N483       Mn491   2.135       .  S
N484        C494   1.337       .  A
N485        N486   1.343       .  A
N485        N487   1.316       .  A
N485       Mn492   2.325       .  S
N486        C495   1.381       .  A
N487        N488   1.304       .  A
N487       Mn491   2.118       .  S
N488        C495   1.332       .  A
N489        N490   1.339       .  A
N489       Mn492   2.314       .  S
N490        C494   1.377       .  A
Mn491      Cl493   2.512       .  S
Mn492      Cl493   2.577       .  S
C494       C4162   1.511       .  S
C495       C4178   1.510       .  S
N496        N497   1.322       .  A
N496        N502   1.309       .  A
N496       Mn525   2.190       .  S
N497        C504   1.357       .  A
N498        N500   1.309       .  A
N498        N499   1.317       .  A
N498       Mn514   2.179       .  S
N499        C505   1.353       .  A
N500        N501   1.319       .  A
N500       Mn525   2.180       .  S
N501        C505   1.352       .  A
N502        N503   1.312       .  A
N502       Mn514   2.164       .  S
N503        C504   1.348       .  A
C504       C4341   1.483       .  S
C505       C4197   1.476       .  S
N506        N512   1.309       .  A
N506        N507   1.319       .  A
N506       Mn536   2.172       .  S
N507        C515   1.350       .  A
N508        N509   1.319       .  A
N508        N510   1.309       .  A
N508       Mn514   2.190       .  S
N509        C516   1.355       .  A
N510        N511   1.316       .  A
N510       Mn536   2.156       .  S
N511        C516   1.347       .  A
N512        N513   1.312       .  A
N512       Mn514   2.167       .  S
N513        C515   1.349       .  A
Mn514      Cl538   2.557       .  S
C515       C4274   1.457       .  S
C516       C4581   1.469       .  S
N517        N518   1.306       .  A
N517        N523   1.319       .  A
N517       Mn525   2.141       .  S
N518        C526   1.334       .  A
N519        N521   1.320       .  A
N519        N520   1.338       .  A
N519       Mn537   2.314       .  S
N520        C527   1.373       .  A
N521        N522   1.310       .  A
N521       Mn525   2.142       .  S
N522        C527   1.336       .  A
N523        N524   1.342       .  A
N523       Mn537   2.323       .  S
N524        C526   1.379       .  A
Mn525      Cl538   2.514       .  S
C526       C4130   1.510       .  S
C527       C4082   1.495       .  S
N528        N529   1.310       .  A
N528        N534   1.318       .  A
N528       Mn536   2.148       .  S
N529        C539   1.339       .  A
N530        N531   1.342       .  A
N530        N532   1.317       .  A
N530       Mn537   2.324       .  S
N531        C540   1.380       .  A
N532        N533   1.306       .  A
N532       Mn536   2.119       .  S
N533        C540   1.332       .  A
N534        N535   1.337       .  A
N534       Mn537   2.310       .  S
N535        C539   1.375       .  A
Mn536      Cl538   2.509       .  S
Mn537      Cl538   2.576       .  S
C539       C4098   1.509       .  S
C540       C4114   1.506       .  S
N541        N542   1.309       .  A
N541        N547   1.309       .  A
N541       Mn570   2.153       .  S
N542        C549   1.347       .  A
N543        N545   1.310       .  A
N543        N544   1.317       .  A
N543       Mn559   2.170       .  S
N544        C550   1.351       .  A
N545        N546   1.316       .  A
N545       Mn570   2.178       .  S
N546        C550   1.351       .  A
N547        N548   1.320       .  A
N547       Mn559   2.174       .  S
N548        C549   1.352       .  A
C549       C4053   1.452       .  S
C550       C4018   1.464       .  S
N551        N557   1.318       .  A
N551        N552   1.336       .  A
N551       Mn581   2.303       .  S
N552        C560   1.374       .  A
N553        N554   1.310       .  A
N553        N555   1.318       .  A
N553       Mn559   2.135       .  S
N554        C561   1.335       .  A
N555        N556   1.336       .  A
N555       Mn581   2.304       .  S
N556        C561   1.372       .  A
N557        N558   1.310       .  A
N557       Mn559   2.137       .  S
N558        C560   1.335       .  A
Mn559      Cl583   2.523       .  S
C560       C4034   1.494       .  S
C561       C4066   1.484       .  S
N562        N563   1.313       .  A
N562        N568   1.310       .  A
N562       Mn570   2.164       .  S
N563        C571   1.348       .  A
N564        N566   1.308       .  A
N564        N565   1.317       .  A
N564       Mn582   2.172       .  S
N565        C572   1.351       .  A
N566        N567   1.316       .  A
N566       Mn570   2.170       .  S
N567        C572   1.352       .  A
N568        N569   1.322       .  A
N568       Mn582   2.198       .  S
N569        C571   1.358       .  A
Mn570      Cl583   2.534       .  S
C571       C4002   1.483       .  S
C572       C3986   1.470       .  S
N573        N574   1.336       .  A
N573        N579   1.319       .  A
N573       Mn581   2.295       .  S
N574        C584   1.371       .  A
N575        N576   1.310       .  A
N575        N577   1.319       .  A
N575       Mn582   2.136       .  S
N576        C585   1.335       .  A
N577        N578   1.335       .  A
N577       Mn581   2.300       .  S
N578        C585   1.372       .  A
N579        N580   1.310       .  A
N579       Mn582   2.147       .  S
N580        C584   1.336       .  A
Mn581      Cl583   2.575       .  S
Mn582      Cl583   2.519       .  S
C584       C3954   1.488       .  S
C585       C3970   1.486       .  S
N586        N587   1.323       .  A
N586        N592   1.311       .  A
N586       Mn615   2.198       .  S
N587        C594   1.357       .  A
N588        N590   1.309       .  A
N588        N589   1.313       .  A
N588       Mn604   2.166       .  S
N589        C595   1.348       .  A
N590        N591   1.322       .  A
N590       Mn615   2.194       .  S
N591        C595   1.358       .  A
N592        N593   1.312       .  A
N592       Mn604   2.167       .  S
N593        C594   1.347       .  A
C594       C3922   1.481       .  S
C595       C3874   1.481       .  S
N596        N602   1.308       .  A
N596        N597   1.320       .  A
N596       Mn626   2.167       .  S
N597        C605   1.351       .  A
N598        N599   1.316       .  A
N598        N600   1.310       .  A
N598       Mn604   2.176       .  S
N599        C606   1.351       .  A
N600        N601   1.317       .  A
N600       Mn626   2.163       .  S
N601        C606   1.348       .  A
N602        N603   1.309       .  A
N602       Mn604   2.159       .  S
N603        C605   1.349       .  A
Mn604      Cl628   2.523       .  S
C605       C3858   1.450       .  S
C606       C4021   1.460       .  S
N607        N608   1.310       .  A
N607        N613   1.320       .  A
N607       Mn615   2.151       .  S
N608        C616   1.337       .  A
N609        N611   1.320       .  A
N609        N610   1.337       .  A
N609       Mn627   2.310       .  S
N610        C617   1.372       .  A
N611        N612   1.311       .  A
N611       Mn615   2.149       .  S
N612        C617   1.337       .  A
N613        N614   1.337       .  A
N613       Mn627   2.301       .  S
N614        C616   1.372       .  A
Mn615      Cl628   2.533       .  S
C616       C3890   1.492       .  S
C617       C3906   1.493       .  S
N618        N619   1.311       .  A
N618        N624   1.318       .  A
N618       Mn626   2.135       .  S
N619        C629   1.335       .  A
N620        N621   1.340       .  A
N620        N622   1.317       .  A
N620       Mn627   2.327       .  S
N621        C630   1.377       .  A
N622        N623   1.309       .  A
N622       Mn626   2.120       .  S
N623        C630   1.332       .  A
N624        N625   1.337       .  A
N624       Mn627   2.314       .  S
N625        C629   1.374       .  A
Mn626      Cl628   2.534       .  S
Mn627      Cl628   2.566       .  S
C629       C3941   1.490       .  S
C630       C3842   1.493       .  S
N631        N632   1.317       .  A
N631        N637   1.309       .  A
N631       Mn660   2.150       .  S
N632        C639   1.349       .  A
N633        N635   1.308       .  A
N633        N634   1.311       .  A
N633       Mn649   2.151       .  S
N634        C640   1.348       .  A
N635        N636   1.317       .  A
N635       Mn660   2.177       .  S
N636        C640   1.351       .  A
N637        N638   1.312       .  A
N637       Mn649   2.168       .  S
N638        C639   1.348       .  A
C639       C4050   1.453       .  S
C640       C3861   1.450       .  S
N641        N647   1.310       .  A
N641        N642   1.319       .  A
N641       Mn671   2.187       .  S
N642        C650   1.353       .  A
N643        N644   1.309       .  A
N643        N645   1.308       .  A
N643       Mn649   2.148       .  S
N644        C651   1.344       .  A
N645        N646   1.323       .  A
N645       Mn671   2.198       .  S
N646        C651   1.360       .  A
N647        N648   1.315       .  A
N647       Mn649   2.164       .  S
N648        C650   1.348       .  A
Mn649      Cl673   2.520       .  S
C650       C3746   1.459       .  S
C651       C3810   1.480       .  S
N652        N653   1.301       .  A
N652        N658   1.314       .  A
N652       Mn660   2.106       .  S
N653        C661   1.326       .  A
N654        N656   1.318       .  A
N654        N655   1.336       .  A
N654       Mn672   2.307       .  S
N655        C662   1.371       .  A
N656        N657   1.313       .  A
N656       Mn660   2.146       .  S
N657        C662   1.339       .  A
N658        N659   1.346       .  A
N658       Mn672   2.337       .  S
N659        C661   1.384       .  A
Mn660      Cl673   2.522       .  S
C661       C3778   1.514       .  S
C662       C3829   1.492       .  S
N663        N664   1.309       .  A
N663        N669   1.320       .  A
N663       Mn671   2.138       .  S
N664        C674   1.337       .  A
N665        N666   1.336       .  A
N665        N667   1.320       .  A
N665       Mn672   2.299       .  S
N666        C675   1.372       .  A
N667        N668   1.308       .  A
N667       Mn671   2.139       .  S
N668        C675   1.333       .  A
N669        N670   1.335       .  A
N669       Mn672   2.309       .  S
N670        C674   1.373       .  A
Mn671      Cl673   2.526       .  S
Mn672      Cl673   2.568       .  S
C674       C3794   1.497       .  S
C675       C3762   1.480       .  S
N676        N677   1.319       .  A
N676        N682   1.309       .  A
N676       Mn705   2.172       .  S
N677        C684   1.352       .  A
N678        N680   1.307       .  A
N678        N679   1.308       .  A
N678       Mn694   2.152       .  S
N679        C685   1.345       .  A
N680        N681   1.321       .  A
N680       Mn705   2.179       .  S
N681        C685   1.354       .  A
N682        N683   1.315       .  A
N682       Mn694   2.179       .  S
N683        C684   1.353       .  A
C684       C4005   1.478   1_455  S
C685       C3698   1.457       .  S
N686        N692   1.308       .  A
N686        N687   1.322       .  A
N686       Mn716   2.184       .  S
N687        C695   1.355       .  A
N688        N689   1.312       .  A
N688        N690   1.309       .  A
N688       Mn694   2.171       .  S
N689        C696   1.351       .  A
N690        N691   1.322       .  A
N690       Mn716   2.188       .  S
N691        C696   1.356       .  A
N692        N693   1.310       .  A
N692       Mn694   2.158       .  S
N693        C695   1.346       .  A
Mn694      Cl718   2.506       .  S
C695       C3730   1.461       .  S
C696       C3925   1.481   1_455  S
N697        N698   1.309       .  A
N697        N703   1.319       .  A
N697       Mn705   2.131       .  S
N698        C706   1.333       .  A
N699        N701   1.318       .  A
N699        N700   1.338       .  A
N699       Mn717   2.318       .  S
N700        C707   1.375       .  A
N701        N702   1.309       .  A
N701       Mn705   2.135       .  S
N702        C707   1.336       .  A
N703        N704   1.340       .  A
N703       Mn717   2.322       .  S
N704        C706   1.376       .  A
Mn705      Cl718   2.538       .  S
C706       C3682   1.492       .  S
C707       C3650   1.499       .  S
N708        N709   1.309       .  A
N708        N714   1.319       .  A
N708       Mn716   2.141       .  S
N709        C719   1.338       .  A
N710        N711   1.337       .  A
N710        N712   1.319       .  A
N710       Mn717   2.309       .  S
N711        C720   1.373       .  A
N712        N713   1.310       .  A
N712       Mn716   2.142       .  S
N713        C720   1.334       .  A
N714        N715   1.338       .  A
N714       Mn717   2.318       .  S
N715        C719   1.376       .  A
Mn716      Cl718   2.539       .  S
Mn717      Cl718   2.563       .  S
C719       C3666   1.510       .  S
C720       C3714   1.487       .  S
N721        N722   1.322       .  A
N721        N727   1.308       .  A
N721       Mn750   2.186       .  S
N722        C729   1.356       .  A
N723        N725   1.308       .  A
N723        N724   1.318       .  A
N723       Mn739   2.182       .  S
N724        C730   1.354       .  A
N725        N726   1.318       .  A
N725       Mn750   2.176       .  S
N726        C730   1.351       .  A
N727        N728   1.311       .  A
N727       Mn739   2.160       .  S
N728        C729   1.351       .  A
C729       C3813   1.481   1_545  S
C730       C3634   1.475       .  S
N731        N737   1.308       .  A
N731        N732   1.319       .  A
N731       Mn761   2.174       .  S
N732        C740   1.351       .  A
N733        N734   1.317       .  A
N733        N735   1.309       .  A
N733       Mn739   2.183       .  S
N734        C741   1.352       .  A
N735        N736   1.316       .  A
N735       Mn761   2.157       .  S
N736        C741   1.350       .  A
N737        N738   1.311       .  A
N737       Mn739   2.162       .  S
N738        C740   1.352       .  A
Mn739      Cl763   2.563       .  S
C740       C3701   1.455       .  S
C741       C3989   1.466   1_545  S
N742        N743   1.306       .  A
N742        N748   1.319       .  A
N742       Mn750   2.135       .  S
N743        C751   1.333       .  A
N744        N746   1.319       .  A
N744        N745   1.339       .  A
N744       Mn762   2.319       .  S
N745        C752   1.377       .  A
N746        N747   1.307       .  A
N746       Mn750   2.135       .  S
N747        C752   1.333       .  A
N748        N749   1.338       .  A
N748       Mn762   2.306       .  S
N749        C751   1.376       .  A
Mn750      Cl763   2.500       .  S
C751       C3618   1.497       .  S
C752       C3586   1.509       .  S
N753        N754   1.313       .  A
N753        N759   1.319       .  A
N753       Mn761   2.151       .  S
N754        C764   1.338       .  A
N755        N756   1.345       .  A
N755        N757   1.316       .  A
N755       Mn762   2.338       .  S
N756        C765   1.385       .  A
N757        N758   1.302       .  A
N757       Mn761   2.114       .  S
N758        C765   1.326       .  A
N759        N760   1.335       .  A
N759       Mn762   2.303       .  S
N760        C764   1.370       .  A
Mn761      Cl763   2.502       .  S
Mn762      Cl763   2.582       .  S
C764       C3573   1.489       .  S
C765       C3602   1.517       .  S
N766        N767   1.318       .  A
N766        N772   1.311       .  A
N766       Mn795   2.178       .  S
N767        C774   1.351       .  A
N768        N770   1.310       .  A
N768        N769   1.312       .  A
N768       Mn784   2.172       .  S
N769        C775   1.351       .  A
N770        N771   1.320       .  A
N770       Mn795   2.175       .  S
N771        C775   1.351       .  A
N772        N773   1.318       .  A
N772       Mn784   2.188       .  S
N773        C774   1.355       .  A
C774       C3877   1.481       .  S
C775       C3733   1.459       .  S
N776        N782   1.310       .  A
N776        N777   1.319       .  A
N776       Mn806   2.180       .  S
N777        C785   1.353       .  A
N778        N779   1.319       .  A
N778        N780   1.311       .  A
N778       Mn784   2.185       .  S
N779        C786   1.352       .  A
N780        N781   1.316       .  A
N780       Mn806   2.169       .  S
N781        C786   1.347       .  A
N782        N783   1.317       .  A
N782       Mn784   2.183       .  S
N783        C785   1.352       .  A
Mn784      Cl808   2.551       .  S
C785       C3637   1.471       .  S
C786       C3749   1.455       .  S
N787        N788   1.310       .  A
N787        N793   1.319       .  A
N787       Mn795   2.140       .  S
N788        C796   1.334       .  A
N789        N791   1.318       .  A
N789        N790   1.339       .  A
N789       Mn807   2.324       .  S
N790        C797   1.378       .  A
N791        N792   1.310       .  A
N791       Mn795   2.140       .  S
N792        C797   1.335       .  A
N793        N794   1.338       .  A
N793       Mn807   2.310       .  S
N794        C796   1.374       .  A
Mn795      Cl808   2.517       .  S
C796       C3538   1.489       .  S
C797       C3506   1.513       .  S
N798        N799   1.308       .  A
N798        N804   1.318       .  A
N798       Mn806   2.135       .  S
N799        C809   1.336       .  A
N800        N801   1.339       .  A
N800        N802   1.318       .  A
N800       Mn807   2.317       .  S
N801        C810   1.375       .  A
N802        N803   1.309       .  A
N802       Mn806   2.129       .  S
N803        C810   1.332       .  A
N804        N805   1.340       .  A
N804       Mn807   2.325       .  S
N805        C809   1.379       .  A
Mn806      Cl808   2.514       .  S
Mn807      Cl808   2.584       .  S
C809       C3522   1.514       .  S
C810       C3554   1.490       .  S
N811        N812   1.317       .  A
N811        N817   1.310       .  A
N811       Mn840   2.185       .  S
N812        C819   1.352       .  A
N813        N815   1.309       .  A
N813        N814   1.321       .  A
N813       Mn829   2.178       .  S
N814        C820   1.352       .  A
N815        N816   1.312       .  A
N815       Mn840   2.164       .  S
N816        C820   1.350       .  A
N817        N818   1.320       .  A
N817       Mn829   2.180       .  S
N818        C819   1.353       .  A
C819       C3490   1.473       .  S
C820       C3461   1.461       .  S
N821        N827   1.319       .  A
N821        N822   1.340       .  A
N821       Mn851   2.320       .  S
N822        C830   1.375       .  A
N823        N824   1.311       .  A
N823        N825   1.321       .  A
N823       Mn829   2.146       .  S
N824        C831   1.334       .  A
N825        N826   1.338       .  A
N825       Mn851   2.321       .  S
N826        C831   1.374       .  A
N827        N828   1.309       .  A
N827       Mn829   2.135       .  S
N828        C830   1.334       .  A
Mn829      Cl853   2.521       .  S
C830       C3426   1.493       .  S
C831       C3685   1.492       .  S
N832        N833   1.319       .  A
N832        N838   1.309       .  A
N832       Mn840   2.186       .  S
N833        C841   1.355       .  A
N834        N836   1.308       .  A
N834        N835   1.323       .  A
N834       Mn852   2.186       .  S
N835        C842   1.357       .  A
N836        N837   1.309       .  A
N836       Mn840   2.163       .  S
N837        C842   1.346       .  A
N838        N839   1.315       .  A
N838       Mn852   2.161       .  S
N839        C841   1.347       .  A
Mn840      Cl853   2.554       .  S
C841       C3442   1.467       .  S
C842       C3477   1.481       .  S
N843        N844   1.340       .  A
N843        N849   1.319       .  A
N843       Mn851   2.329       .  S
N844        C854   1.378       .  A
N845        N846   1.308       .  A
N845        N847   1.318       .  A
N845       Mn852   2.149       .  S
N846        C855   1.335       .  A
N847        N848   1.339       .  A
N847       Mn851   2.306       .  S
N848        C855   1.376       .  A
N849        N850   1.308       .  A
N849       Mn852   2.127       .  S
N850        C854   1.332       .  A
Mn851      Cl853   2.573       .  S
Mn852      Cl853   2.515       .  S
C854       C3605   1.506       .  S
C855       C3410   1.506       .  S
N856        N857   1.318       .  A
N856        N862   1.309       .  A
N856       Mn885   2.180       .  S
N857        C864   1.352       .  A
N858        N860   1.310       .  A
N858        N859   1.321       .  A
N858       Mn874   2.181       .  S
N859        C865   1.352       .  A
N860        N861   1.312       .  A
N860       Mn885   2.168       .  S
N861        C865   1.349       .  A
N862        N863   1.317       .  A
N862       Mn874   2.168       .  S
N863        C864   1.350       .  A
C864       C3397   1.465       .  S
C865       C3378   1.459       .  S
N866        N872   1.318       .  A
N866        N867   1.336       .  A
N866       Mn896   2.309       .  S
N867        C875   1.373       .  A
N868        N869   1.306       .  A
N868        N870   1.317       .  A
N868       Mn874   2.132       .  S
N869        C876   1.335       .  A
N870        N871   1.338       .  A
N870       Mn896   2.309       .  S
N871        C876   1.377       .  A
N872        N873   1.309       .  A
N872       Mn874   2.128       .  S
N873        C875   1.334       .  A
Mn874      Cl898   2.515       .  S
C875       C3330   1.487       .  S
C876       C3797   1.505       .  S
N877        N878   1.314       .  A
N877        N883   1.310       .  A
N877       Mn885   2.172       .  S
N878        C886   1.350       .  A
N879        N881   1.309       .  A
N879        N880   1.321       .  A
N879       Mn897   2.180       .  S
N880        C887   1.354       .  A
N881        N882   1.311       .  A
N881       Mn885   2.167       .  S
N882        C887   1.352       .  A
N883        N884   1.319       .  A
N883       Mn897   2.175       .  S
N884        C886   1.351       .  A
Mn885      Cl898   2.539       .  S
C886       C3346   1.455       .  S
C887       C3362   1.480       .  S
N888        N889   1.338       .  A
N888        N894   1.317       .  A
N888       Mn896   2.310       .  S
N889        C899   1.377       .  A
N890        N891   1.310       .  A
N890        N892   1.319       .  A
N890       Mn897   2.142       .  S
N891        C900   1.335       .  A
N892        N893   1.337       .  A
N892       Mn896   2.305       .  S
N893        C900   1.372       .  A
N894        N895   1.307       .  A
N894       Mn897   2.131       .  S
N895        C899   1.333       .  A
Mn896      Cl898   2.581       .  S
Mn897      Cl898   2.515       .  S
C899       C3589   1.506       .  S
C900       C3314   1.486       .  S
N901        N902   1.339       .  A
N901        N907   1.317       .  A
N901       Mn930   2.314       .  S
N902        C909   1.377       .  A
N903        N905   1.316       .  A
N903        N904   1.305       .  A
N903       Mn919   2.123       .  S
N904        C910   1.333       .  A
N905        N906   1.340       .  A
N905       Mn930   2.310       .  S
N906        C910   1.377       .  A
N907        N908   1.308       .  A
N907       Mn919   2.131       .  S
N908        C909   1.336       .  A
C909       C5013   1.509       .  S
C910       C3973   1.500       .  S
N911        N917   1.309       .  A
N911        N912   1.317       .  A
N911       Mn941   2.176       .  S
N912        C920   1.351       .  A
N913        N914   1.318       .  A
N913        N915   1.309       .  A
N913       Mn919   2.168       .  S
N914        C921   1.349       .  A
N915        N916   1.314       .  A
N915       Mn941   2.168       .  S
N916        C921   1.349       .  A
N917        N918   1.316       .  A
N917       Mn919   2.171       .  S
N918        C920   1.349       .  A
Mn919      Cl943   2.507       .  S
C920       C3298   1.460       .  S
C921       C3266   1.450       .  S
N922        N923   1.337       .  A
N922        N928   1.319       .  A
N922       Mn930   2.309       .  S
N923        C931   1.373       .  A
N924        N926   1.320       .  A
N924        N925   1.311       .  A
N924       Mn942   2.147       .  S
N925        C932   1.338       .  A
N926        N927   1.337       .  A
N926       Mn930   2.315       .  S
N927        C932   1.375       .  A
N928        N929   1.310       .  A
N928       Mn942   2.142       .  S
N929        C931   1.335       .  A
Mn930      Cl943   2.579       .  S
C931       C3653   1.492       .  S
C932       C4738   1.502       .  S
N933        N934   1.312       .  A
N933        N939   1.309       .  A
N933       Mn941   2.168       .  S
N934        C944   1.351       .  A
N935        N936   1.321       .  A
N935        N937   1.310       .  A
N935       Mn942   2.187       .  S
N936        C945   1.353       .  A
N937        N938   1.312       .  A
N937       Mn941   2.161       .  S
N938        C945   1.347       .  A
N939        N940   1.322       .  A
N939       Mn942   2.187       .  S
N940        C944   1.355       .  A
Mn941      Cl943   2.539       .  S
Mn942      Cl943   2.524       .  S
C944       C3282   1.481       .  S
C945       C3250   1.454       .  S
N946        N947   1.336       .  A
N946        N952   1.319       .  A
N946       Mn975   2.305       .  S
N947        C954   1.371       .  A
N948        N950   1.319       .  A
N948        N949   1.309       .  A
N948       Mn964   2.136       .  S
N949        C955   1.334       .  A
N950        N951   1.336       .  A
N950       Mn975   2.304       .  S
N951        C955   1.371       .  A
N952        N953   1.311       .  A
N952       Mn964   2.146       .  S
N953        C954   1.336       .  A
C954       C3909   1.488       .  S
C955       C3170   1.481       .  S
N956        N962   1.310       .  A
N956        N957   1.316       .  A
N956       Mn986   2.178       .  S
N957        C965   1.351       .  A
N958        N959   1.318       .  A
N958        N960   1.309       .  A
N958       Mn964   2.180       .  S
N959        C966   1.353       .  A
N960        N961   1.314       .  A
N960       Mn986   2.166       .  S
N961        C966   1.349       .  A
N962        N963   1.321       .  A
N962       Mn964   2.190       .  S
N963        C965   1.354       .  A
Mn964      Cl988   2.525       .  S
C965       C3221   1.474       .  S
C966       C3237   1.464       .  S
N967        N968   1.339       .  A
N967        N973   1.317       .  A
N967       Mn975   2.315       .  S
N968        C976   1.375       .  A
N969        N971   1.317       .  A
N969        N970   1.310       .  A
N969       Mn987   2.140       .  S
N970        C977   1.338       .  A
N971        N972   1.337       .  A
N971       Mn975   2.305       .  S
N972        C977   1.375       .  A
N973        N974   1.309       .  A
N973       Mn987   2.134       .  S
N974        C976   1.334       .  A
Mn975      Cl988   2.572       .  S
C976       C3189   1.496       .  S
C977       C3669   1.502       .  S
N978        N979   1.315       .  A
N978        N984   1.310       .  A
N978       Mn986   2.177       .  S
N979        C989   1.350       .  A
N980        N981   1.319       .  A
N980        N982   1.310       .  A
N980       Mn987   2.173       .  S
N981        C990   1.351       .  A
N982        N983   1.311       .  A
N982       Mn986   2.164       .  S
N983        C990   1.348       .  A
N984        N985   1.318       .  A
N984       Mn987   2.168       .  S
N985        C989   1.349       .  A
Mn986      Cl988   2.536       .  S
Mn987      Cl988   2.521       .  S
C989       C3253   1.455       .  S
C990       C3202   1.461       .  S
N991        N992   1.307       .  A
N991        N997   1.307       .  A
N991      Mn1020   2.144       .  S
N992        C999   1.346       .  A
N993        N995   1.307       .  A
N993        N994   1.324       .  A
N993      Mn1009   2.195       .  S
N994       C1000   1.358       .  A
N995        N996   1.312       .  A
N995      Mn1020   2.158       .  S
N996       C1000   1.349       .  A
N997        N998   1.322       .  A
N997      Mn1009   2.178       .  S
N998        C999   1.355       .  A
C999       C3141   1.458       .  S
C1000      C3157   1.482       .  S
N1001      N1007   1.320       .  A
N1001      N1002   1.335       .  A
N1001     Mn1031   2.305       .  S
N1002      C1010   1.371       .  A
N1003      N1004   1.310       .  A
N1003      N1005   1.319       .  A
N1003     Mn1009   2.141       .  S
N1004      C1011   1.337       .  A
N1005      N1006   1.336       .  A
N1005     Mn1031   2.311       .  S
N1006      C1011   1.375       .  A
N1007      N1008   1.309       .  A
N1007     Mn1009   2.135       .  S
N1008      C1010   1.334       .  A
Mn1009    Cl1033   2.550       .  S
C1010      C3957   1.481       .  S
C1011      C4437   1.503       .  S
N1012      N1013   1.305       .  A
N1012      N1018   1.307       .  A
N1012     Mn1020   2.140       .  S
N1013      C1021   1.340       .  A
N1014      N1016   1.307       .  A
N1014      N1015   1.324       .  A
N1014     Mn1032   2.188       .  S
N1015      C1022   1.359       .  A
N1016      N1017   1.308       .  A
N1016     Mn1020   2.151       .  S
N1017      C1022   1.344       .  A
N1018      N1019   1.326       .  A
N1018     Mn1032   2.203       .  S
N1019      C1021   1.362       .  A
Mn1020    Cl1033   2.511       .  S
C1021      C3365   1.481       .  S
C1022      C3125   1.478       .  S
N1023      N1024   1.340       .  A
N1023      N1029   1.320       .  A
N1023     Mn1031   2.321       .  S
N1024      C1034   1.376       .  A
N1025      N1026   1.312       .  A
N1025      N1027   1.321       .  A
N1025     Mn1032   2.157       .  S
N1026      C1035   1.338       .  A
N1027      N1028   1.335       .  A
N1027     Mn1031   2.300       .  S
N1028      C1035   1.369       .  A
N1029      N1030   1.312       .  A
N1029     Mn1032   2.158       .  S
N1030      C1034   1.339       .  A
Mn1031    Cl1033   2.540       .  S
Mn1032    Cl1033   2.553       .  S
C1034      C4149   1.512       .  S
C1035      C3570   1.487       .  S
N1036      N1037   1.338       .  A
N1036      N1042   1.320       .  A
N1036     Mn1065   2.312       .  S
N1037      C1044   1.374       .  A
N1038      N1040   1.320       .  A
N1038      N1039   1.311       .  A
N1038     Mn1054   2.146       .  S
N1039      C1045   1.335       .  A
N1040      N1041   1.336       .  A
N1040     Mn1065   2.301       .  S
N1041      C1045   1.371       .  A
N1042      N1043   1.309       .  A
N1042     Mn1054   2.140       .  S
N1043      C1044   1.335       .  A
C1044      C4533   1.495       .  S
C1045      C3893   1.485       .  S
N1046      N1052   1.311       .  A
N1046      N1047   1.316       .  A
N1046     Mn1076   2.185       .  S
N1047      C1055   1.353       .  A
N1048      N1049   1.323       .  A
N1048      N1050   1.310       .  A
N1048     Mn1054   2.194       .  S
N1049      C1056   1.355       .  A
N1050      N1051   1.310       .  A
N1050     Mn1076   2.156       .  S
N1051      C1056   1.345       .  A
N1052      N1053   1.319       .  A
N1052     Mn1054   2.183       .  S
N1053      C1055   1.353       .  A
Mn1054    Cl1078   2.526       .  S
C1055      C3106   1.478       .  S
C1056      C3077   1.469       .  S
N1057      N1058   1.343       .  A
N1057      N1063   1.316       .  A
N1057     Mn1065   2.330       .  S
N1058      C1066   1.382       .  A
N1059      N1061   1.317       .  A
N1059      N1060   1.311       .  A
N1059     Mn1077   2.141       .  S
N1060      C1067   1.338       .  A
N1061      N1062   1.337       .  A
N1061     Mn1065   2.304       .  S
N1062      C1067   1.374       .  A
N1063      N1064   1.305       .  A
N1063     Mn1077   2.125       .  S
N1064      C1066   1.331       .  A
Mn1065    Cl1078   2.577       .  S
C1066      C3509   1.517       .  S
C1067      C4101   1.501       .  S
N1068      N1069   1.317       .  A
N1068      N1074   1.309       .  A
N1068     Mn1076   2.184       .  S
N1069      C1079   1.353       .  A
N1070      N1071   1.318       .  A
N1070      N1072   1.308       .  A
N1070     Mn1077   2.170       .  S
N1071      C1080   1.350       .  A
N1072      N1073   1.312       .  A
N1072     Mn1076   2.159       .  S
N1073      C1080   1.349       .  A
N1074      N1075   1.318       .  A
N1074     Mn1077   2.168       .  S
N1075      C1079   1.352       .  A
Mn1076    Cl1078   2.535       .  S
Mn1077    Cl1078   2.516       .  S
C1079      C3090   1.475       .  S
C1080      C3058   1.447       .  S
N1081      N1082   1.318       .  A
N1081      N1087   1.309       .  A
N1081     Mn1110   2.181       .  S
N1082      C1089   1.352       .  A
N1083      N1085   1.308       .  A
N1083      N1084   1.319       .  A
N1083     Mn1099   2.172       .  S
N1084      C1090   1.352       .  A
N1085      N1086   1.311       .  A
N1085     Mn1110   2.160       .  S
N1086      C1090   1.350       .  A
N1087      N1088   1.317       .  A
N1087     Mn1099   2.167       .  S
N1088      C1089   1.349       .  A
C1089      C3010   1.466       .  S
C1090      C3042   1.457       .  S
N1091      N1097   1.316       .  A
N1091      N1092   1.340       .  A
N1091     Mn1121   2.311       .  S
N1092      C1100   1.378       .  A
N1093      N1094   1.309       .  A
N1093      N1095   1.318       .  A
N1093     Mn1099   2.138       .  S
N1094      C1101   1.336       .  A
N1095      N1096   1.337       .  A
N1095     Mn1121   2.304       .  S
N1096      C1101   1.373       .  A
N1097      N1098   1.306       .  A
N1097     Mn1099   2.127       .  S
N1098      C1100   1.335       .  A
Mn1099    Cl1123   2.521       .  S
C1100      C4421   1.509       .  S
C1101      C4997   1.492       .  S
N1102      N1103   1.316       .  A
N1102      N1108   1.309       .  A
N1102     Mn1110   2.174       .  S
N1103      C1111   1.350       .  A
N1104      N1106   1.310       .  A
N1104      N1105   1.323       .  A
N1104     Mn1122   2.189       .  S
N1105      C1112   1.356       .  A
N1106      N1107   1.308       .  A
N1106     Mn1110   2.159       .  S
N1107      C1112   1.348       .  A
N1108      N1109   1.318       .  A
N1108     Mn1122   2.176       .  S
N1109      C1111   1.352       .  A
Mn1110    Cl1123   2.538       .  S
C1111      C3026   1.461       .  S
C1112      C2997   1.476       .  S
N1113      N1114   1.336       .  A
N1113      N1119   1.320       .  A
N1113     Mn1121   2.306       .  S
N1114      C1124   1.371       .  A
N1115      N1116   1.310       .  A
N1115      N1117   1.320       .  A
N1115     Mn1122   2.150       .  S
N1116      C1125   1.336       .  A
N1117      N1118   1.336       .  A
N1117     Mn1121   2.301       .  S
N1118      C1125   1.371       .  A
N1119      N1120   1.312       .  A
N1119     Mn1122   2.146       .  S
N1120      C1124   1.336       .  A
Mn1121    Cl1123   2.559       .  S
Mn1122    Cl1123   2.529       .  S
C1124      C4805   1.487       .  S
C1125      C4242   1.488       .  S
N1126      N1127   1.337       .  A
N1126      N1132   1.321       .  A
N1126     Mn1155   2.309       .  S
N1127      C1134   1.372       .  A
N1128      N1130   1.320       .  A
N1128      N1129   1.309       .  A
N1128     Mn1144   2.133       .  S
N1129      C1135   1.333       .  A
N1130      N1131   1.338       .  A
N1130     Mn1155   2.312       .  S
N1131      C1135   1.373       .  A
N1132      N1133   1.310       .  A
N1132     Mn1144   2.146       .  S
N1133      C1134   1.335       .  A
C1134      C4373   1.487       .  S
C1135      C2962   1.485       .  S
N1136      N1142   1.308       .  A
N1136      N1137   1.306       .  A
N1136     Mn1166   2.153       .  S
N1137      C1145   1.343       .  A
N1138      N1139   1.318       .  A
N1138      N1140   1.310       .  A
N1138     Mn1144   2.173       .  S
N1139      C1146   1.351       .  A
N1140      N1141   1.317       .  A
N1140     Mn1166   2.180       .  S
N1141      C1146   1.351       .  A
N1142      N1143   1.325       .  A
N1142     Mn1144   2.188       .  S
N1143      C1145   1.358       .  A
Mn1144    Cl1168   2.536       .  S
C1145      C2946   1.474       .  S
C1146      C2981   1.465       .  S
N1147      N1148   1.338       .  A
N1147      N1153   1.318       .  A
N1147     Mn1155   2.309       .  S
N1148      C1156   1.375       .  A
N1149      N1151   1.318       .  A
N1149      N1150   1.309       .  A
N1149     Mn1167   2.134       .  S
N1150      C1157   1.336       .  A
N1151      N1152   1.338       .  A
N1151     Mn1155   2.316       .  S
N1152      C1157   1.376       .  A
N1153      N1154   1.309       .  A
N1153     Mn1167   2.143       .  S
N1154      C1156   1.337       .  A
Mn1155    Cl1168   2.555       .  S
C1156      C2930   1.504       .  S
C1157      C4165   1.503       .  S
N1158      N1159   1.310       .  A
N1158      N1164   1.308       .  A
N1158     Mn1166   2.160       .  S
N1159      C1169   1.350       .  A
N1160      N1161   1.319       .  A
N1160      N1162   1.308       .  A
N1160     Mn1167   2.169       .  S
N1161      C1170   1.350       .  A
N1162      N1163   1.314       .  A
N1162     Mn1166   2.170       .  S
N1163      C1170   1.349       .  A
N1164      N1165   1.322       .  A
N1164     Mn1167   2.183       .  S
N1165      C1169   1.355       .  A
Mn1166    Cl1168   2.529       .  S
Mn1167    Cl1168   2.531       .  S
C1169      C3122   1.478       .  S
C1170      C3349   1.456       .  S
N1171      N1172   1.310       .  A
N1171      N1177   1.308       .  A
N1171     Mn1200   2.155       .  S
N1172      C1179   1.346       .  A
N1173      N1175   1.311       .  A
N1173      N1174   1.317       .  A
N1173     Mn1189   2.170       .  S
N1174      C1180   1.349       .  A
N1175      N1176   1.320       .  A
N1175     Mn1200   2.200       .  S
N1176      C1180   1.356       .  A
N1177      N1178   1.323       .  A
N1177     Mn1189   2.192       .  S
N1178      C1179   1.358       .  A
C1179      C2914   1.480       .  S
C1180      C3445   1.471       .  S
N1181      N1187   1.319       .  A
N1181      N1182   1.337       .  A
N1181     Mn1211   2.305       .  S
N1182      C1190   1.373       .  A
N1183      N1184   1.307       .  A
N1183      N1185   1.318       .  A
N1183     Mn1189   2.133       .  S
N1184      C1191   1.336       .  A
N1185      N1186   1.339       .  A
N1185     Mn1211   2.314       .  S
N1186      C1191   1.376       .  A
N1187      N1188   1.311       .  A
N1187     Mn1189   2.146       .  S
N1188      C1190   1.335       .  A
Mn1189    Cl1213   2.521       .  S
C1190      C2901   1.489       .  S
C1191      C4597   1.505       .  S
N1192      N1193   1.308       .  A
N1192      N1198   1.309       .  A
N1192     Mn1200   2.157       .  S
N1193      C1201   1.346       .  A
N1194      N1196   1.311       .  A
N1194      N1195   1.315       .  A
N1194     Mn1212   2.164       .  S
N1195      C1202   1.347       .  A
N1196      N1197   1.319       .  A
N1196     Mn1200   2.192       .  S
N1197      C1202   1.353       .  A
N1198      N1199   1.325       .  A
N1198     Mn1212   2.195       .  S
N1199      C1201   1.358       .  A
Mn1200    Cl1213   2.542       .  S
C1201      C2882   1.484       .  S
C1202      C3029   1.461       .  S
N1203      N1204   1.337       .  A
N1203      N1209   1.319       .  A
N1203     Mn1211   2.303       .  S
N1204      C1214   1.371       .  A
N1205      N1206   1.306       .  A
N1205      N1207   1.318       .  A
N1205     Mn1212   2.126       .  S
N1206      C1215   1.333       .  A
N1207      N1208   1.341       .  A
N1207     Mn1211   2.322       .  S
N1208      C1215   1.378       .  A
N1209      N1210   1.313       .  A
N1209     Mn1212   2.155       .  S
N1210      C1214   1.337       .  A
Mn1211    Cl1213   2.581       .  S
Mn1212    Cl1213   2.522       .  S
C1214      C4229   1.492       .  S
C1215      C2866   1.502       .  S
N1216      N1217   1.342       .  A
N1216      N1222   1.317       .  A
N1216     Mn1245   2.323       .  S
N1217      C1224   1.380       .  A
N1218      N1220   1.318       .  A
N1218      N1219   1.309       .  A
N1218     Mn1234   2.132       .  S
N1219      C1225   1.334       .  A
N1220      N1221   1.339       .  A
N1220     Mn1245   2.316       .  S
N1221      C1225   1.375       .  A
N1222      N1223   1.307       .  A
N1222     Mn1234   2.135       .  S
N1223      C1224   1.333       .  A
C1224      C4290   1.512       .  S
C1225      C2802   1.492       .  S
N1226      N1232   1.309       .  A
N1226      N1227   1.314       .  A
N1226     Mn1256   2.175       .  S
N1227      C1235   1.352       .  A
N1228      N1229   1.316       .  A
N1228      N1230   1.310       .  A
N1228     Mn1234   2.167       .  S
N1229      C1236   1.347       .  A
N1230      N1231   1.318       .  A
N1230     Mn1256   2.181       .  S
N1231      C1236   1.351       .  A
N1232      N1233   1.318       .  A
N1232     Mn1234   2.164       .  S
N1233      C1235   1.349       .  A
Mn1234    Cl1258   2.505       .  S
C1235      C2789   1.456       .  S
C1236      C2834   1.452       .  S
N1237      N1238   1.336       .  A
N1237      N1243   1.320       .  A
N1237     Mn1245   2.303       .  S
N1238      C1246   1.372       .  A
N1239      N1241   1.320       .  A
N1239      N1240   1.308       .  A
N1239     Mn1257   2.136       .  S
N1240      C1247   1.333       .  A
N1241      N1242   1.339       .  A
N1241     Mn1245   2.320       .  S
N1242      C1247   1.375       .  A
N1243      N1244   1.309       .  A
N1243     Mn1257   2.139       .  S
N1244      C1246   1.334       .  A
Mn1245    Cl1258   2.579       .  S
C1246      C2821   1.485       .  S
C1247      C4213   1.493       .  S
N1248      N1249   1.317       .  A
N1248      N1254   1.309       .  A
N1248     Mn1256   2.177       .  S
N1249      C1259   1.352       .  A
N1250      N1251   1.320       .  A
N1250      N1252   1.310       .  A
N1250     Mn1257   2.186       .  S
N1251      C1260   1.353       .  A
N1252      N1253   1.317       .  A
N1252     Mn1256   2.183       .  S
N1253      C1260   1.353       .  A
N1254      N1255   1.317       .  A
N1254     Mn1257   2.170       .  S
N1255      C1259   1.351       .  A
Mn1256    Cl1258   2.567       .  S
Mn1257    Cl1258   2.507       .  S
C1259      C2850   1.468       .  S
C1260      C3218   1.476       .  S
N1261      N1262   1.318       .  A
N1261      N1267   1.309       .  A
N1261     Mn1290   2.179       .  S
N1262      C1269   1.351       .  A
N1263      N1265   1.308       .  A
N1263      N1264   1.321       .  A
N1263     Mn1279   2.183       .  S
N1264      C1270   1.353       .  A
N1265      N1266   1.311       .  A
N1265     Mn1290   2.156       .  S
N1266      C1270   1.346       .  A
N1267      N1268   1.317       .  A
N1267     Mn1279   2.171       .  S
N1268      C1269   1.349       .  A
C1269      C2773   1.457       .  S
C1270      C2722   1.460       .  S
N1271      N1277   1.319       .  A
N1271      N1272   1.339       .  A
N1271     Mn1301   2.315       .  S
N1272      C1280   1.376       .  A
N1273      N1274   1.310       .  A
N1273      N1275   1.320       .  A
N1273     Mn1279   2.137       .  S
N1274      C1281   1.334       .  A
N1275      N1276   1.337       .  A
N1275     Mn1301   2.310       .  S
N1276      C1281   1.373       .  A
N1277      N1278   1.305       .  A
N1277     Mn1279   2.129       .  S
N1278      C1280   1.331       .  A
Mn1279    Cl1303   2.519       .  S
C1280      C2706   1.495       .  S
C1281      C2965   1.486       .  S
N1282      N1283   1.310       .  A
N1282      N1288   1.308       .  A
N1282     Mn1290   2.165       .  S
N1283      C1291   1.349       .  A
N1284      N1286   1.309       .  A
N1284      N1285   1.319       .  A
N1284     Mn1302   2.177       .  S
N1285      C1292   1.351       .  A
N1286      N1287   1.313       .  A
N1286     Mn1290   2.160       .  S
N1287      C1292   1.348       .  A
N1288      N1289   1.321       .  A
N1288     Mn1302   2.171       .  S
N1289      C1291   1.353       .  A
Mn1290    Cl1303   2.540       .  S
C1291      C2741   1.462       .  S
C1292      C2757   1.455       .  S
N1293      N1294   1.338       .  A
N1293      N1299   1.319       .  A
N1293     Mn1301   2.313       .  S
N1294      C1304   1.374       .  A
N1295      N1296   1.311       .  A
N1295      N1297   1.319       .  A
N1295     Mn1302   2.138       .  S
N1296      C1305   1.334       .  A
N1297      N1298   1.338       .  A
N1297     Mn1301   2.313       .  S
N1298      C1305   1.374       .  A
N1299      N1300   1.308       .  A
N1299     Mn1302   2.130       .  S
N1300      C1304   1.332       .  A
Mn1301    Cl1303   2.561       .  S
Mn1302    Cl1303   2.523       .  S
C1304      C2693   1.485       .  S
C1305      C2805   1.489       .  S
N1306      N1307   1.342       .  A
N1306      N1312   1.319       .  A
N1306     Mn1335   2.332       .  S
N1307      C1314   1.378       .  A
N1308      N1310   1.319       .  A
N1308      N1309   1.310       .  A
N1308     Mn1324   2.143       .  S
N1309      C1315   1.335       .  A
N1310      N1311   1.337       .  A
N1310     Mn1335   2.303       .  S
N1311      C1315   1.372       .  A
N1312      N1313   1.308       .  A
N1312     Mn1324   2.129       .  S
N1313      C1314   1.332       .  A
C1314      C3845   1.499       .  S
C1315      C2658   1.487       .  S
N1316      N1322   1.310       .  A
N1316      N1317   1.318       .  A
N1316     Mn1346   2.185       .  S
N1317      C1325   1.353       .  A
N1318      N1319   1.319       .  A
N1318      N1320   1.310       .  A
N1318     Mn1324   2.182       .  S
N1319      C1326   1.353       .  A
N1320      N1321   1.316       .  A
N1320     Mn1346   2.177       .  S
N1321      C1326   1.352       .  A
N1322      N1323   1.318       .  A
N1322     Mn1324   2.173       .  S
N1323      C1325   1.351       .  A
Mn1324    Cl1348   2.512       .  S
C1325      C2642   1.469       .  S
C1326      C3109   1.475       .  S
N1327      N1328   1.340       .  A
N1327      N1333   1.319       .  A
N1327     Mn1335   2.320       .  S
N1328      C1336   1.376       .  A
N1329      N1331   1.318       .  A
N1329      N1330   1.311       .  A
N1329     Mn1347   2.137       .  S
N1330      C1337   1.335       .  A
N1331      N1332   1.336       .  A
N1331     Mn1335   2.307       .  S
N1332      C1337   1.375       .  A
N1333      N1334   1.308       .  A
N1333     Mn1347   2.132       .  S
N1334      C1336   1.333       .  A
Mn1335    Cl1348   2.588       .  S
C1336      C2610   1.495       .  S
C1337      C3781   1.496       .  S
N1338      N1339   1.319       .  A
N1338      N1344   1.311       .  A
N1338     Mn1346   2.194       .  S
N1339      C1349   1.355       .  A
N1340      N1341   1.319       .  A
N1340      N1342   1.309       .  A
N1340     Mn1347   2.171       .  S
N1341      C1350   1.350       .  A
N1342      N1343   1.312       .  A
N1342     Mn1346   2.170       .  S
N1343      C1350   1.349       .  A
N1344      N1345   1.318       .  A
N1344     Mn1347   2.174       .  S
N1345      C1349   1.350       .  A
Mn1346    Cl1348   2.552       .  S
Mn1347    Cl1348   2.512       .  S
C1349      C2674   1.477       .  S
C1350      C2626   1.461       .  S
N1351      N1352   1.312       .  A
N1351      N1357   1.310       .  A
N1351     Mn1380   2.167       .  S
N1352      C1359   1.349       .  A
N1353      N1355   1.308       .  A
N1353      N1354   1.325       .  A
N1353     Mn1369   2.184       .  S
N1354      C1360   1.357       .  A
N1355      N1356   1.306       .  A
N1355     Mn1380   2.159       .  S
N1356      C1360   1.348       .  A
N1357      N1358   1.320       .  A
N1357     Mn1369   2.174       .  S
N1358      C1359   1.352       .  A
C1359      C2546   1.462       .  S
C1360      C2562   1.478       .  S
N1361      N1367   1.318       .  A
N1361      N1362   1.338       .  A
N1361     Mn1391   2.307       .  S
N1362      C1370   1.373       .  A
N1363      N1364   1.310       .  A
N1363      N1365   1.319       .  A
N1363     Mn1369   2.141       .  S
N1364      C1371   1.335       .  A
N1365      N1366   1.337       .  A
N1365     Mn1391   2.307       .  S
N1366      C1371   1.372       .  A
N1367      N1368   1.307       .  A
N1367     Mn1369   2.129       .  S
N1368      C1370   1.333       .  A
Mn1369    Cl1393   2.537       .  S
C1370      C2578   1.485       .  S
C1371      C3317   1.488       .  S
N1372      N1373   1.311       .  A
N1372      N1378   1.308       .  A
N1372     Mn1380   2.165       .  S
N1373      C1381   1.350       .  A
N1374      N1376   1.310       .  A
N1374      N1375   1.319       .  A
N1374     Mn1392   2.182       .  S
N1375      C1382   1.351       .  A
N1376      N1377   1.315       .  A
N1376     Mn1380   2.167       .  S
N1377      C1382   1.349       .  A
N1378      N1379   1.325       .  A
N1378     Mn1392   2.196       .  S
N1379      C1381   1.358       .  A
Mn1380    Cl1393   2.514       .  S
C1381      C2594   1.486       .  S
C1382      C2770   1.454       .  S
N1383      N1384   1.336       .  A
N1383      N1389   1.319       .  A
N1383     Mn1391   2.304       .  S
N1384      C1394   1.373       .  A
N1385      N1386   1.310       .  A
N1385      N1387   1.320       .  A
N1385     Mn1392   2.138       .  S
N1386      C1395   1.334       .  A
N1387      N1388   1.336       .  A
N1387     Mn1391   2.309       .  S
N1388      C1395   1.372       .  A
N1389      N1390   1.311       .  A
N1389     Mn1392   2.145       .  S
N1390      C1394   1.337       .  A
Mn1391    Cl1393   2.565       .  S
Mn1392    Cl1393   2.537       .  S
C1394      C2933   1.494       .  S
C1395      C2661   1.485       .  S
N1396      N1397   1.336       .  A
N1396      N1402   1.320       .  A
N1396     Mn1425   2.310       .  S
N1397      C1404   1.372       .  A
N1398      N1400   1.320       .  A
N1398      N1399   1.308       .  A
N1398     Mn1414   2.132       .  S
N1399      C1405   1.332       .  A
N1400      N1401   1.338       .  A
N1400     Mn1425   2.315       .  S
N1401      C1405   1.374       .  A
N1402      N1403   1.311       .  A
N1402     Mn1414   2.144       .  S
N1403      C1404   1.336       .  A
C1404      C5173   1.492       .  S
C1405      C2514   1.485       .  S
N1406      N1412   1.308       .  A
N1406      N1407   1.310       .  A
N1406     Mn1436   2.155       .  S
N1407      C1415   1.346       .  A
N1408      N1409   1.323       .  A
N1408      N1410   1.308       .  A
N1408     Mn1414   2.177       .  S
N1409      C1416   1.356       .  A
N1410      N1411   1.310       .  A
N1410     Mn1436   2.166       .  S
N1411      C1416   1.346       .  A
N1412      N1413   1.321       .  A
N1412     Mn1414   2.184       .  S
N1413      C1415   1.354       .  A
Mn1414    Cl1438   2.550       .  S
C1415      C3458   1.460       .  S
C1416      C2533   1.476       .  S
N1417      N1418   1.338       .  A
N1417      N1423   1.319       .  A
N1417     Mn1425   2.317       .  S
N1418      C1426   1.374       .  A
N1419      N1421   1.319       .  A
N1419      N1420   1.308       .  A
N1419     Mn1437   2.134       .  S
N1420      C1427   1.334       .  A
N1421      N1422   1.339       .  A
N1421     Mn1425   2.322       .  S
N1422      C1427   1.376       .  A
N1423      N1424   1.310       .  A
N1423     Mn1437   2.136       .  S
N1424      C1426   1.334       .  A
Mn1425    Cl1438   2.536       .  S
C1426      C2501   1.489       .  S
C1427      C4821   1.502       .  S
N1428      N1429   1.307       .  A
N1428      N1434   1.307       .  A
N1428     Mn1436   2.149       .  S
N1429      C1439   1.343       .  A
N1430      N1431   1.324       .  A
N1430      N1432   1.306       .  A
N1430     Mn1437   2.179       .  S
N1431      C1440   1.356       .  A
N1432      N1433   1.307       .  A
N1432     Mn1436   2.157       .  S
N1433      C1440   1.350       .  A
N1434      N1435   1.324       .  A
N1434     Mn1437   2.186       .  S
N1435      C1439   1.358       .  A
Mn1436    Cl1438   2.505       .  S
Mn1437    Cl1438   2.554       .  S
C1439      C2994   1.477       .  S
C1440      C2885   1.480       .  S
N1441      N1442   1.310       .  A
N1441      N1447   1.308       .  A
N1441     Mn1470   2.160       .  S
N1442      C1449   1.349       .  A
N1443      N1445   1.308       .  A
N1443      N1444   1.322       .  A
N1443     Mn1459   2.179       .  S
N1444      C1450   1.354       .  A
N1445      N1446   1.309       .  A
N1445     Mn1470   2.150       .  S
N1446      C1450   1.344       .  A
N1447      N1448   1.321       .  A
N1447     Mn1459   2.173       .  S
N1448      C1449   1.353       .  A
C1449      C2482   1.463       .  S
C1450      C2786   1.456       .  S
N1451      N1457   1.319       .  A
N1451      N1452   1.335       .  A
N1451     Mn1481   2.301       .  S
N1452      C1460   1.372       .  A
N1453      N1454   1.305       .  A
N1453      N1455   1.318       .  A
N1453     Mn1459   2.124       .  S
N1454      C1461   1.330       .  A
N1455      N1456   1.339       .  A
N1455     Mn1481   2.314       .  S
N1456      C1461   1.378       .  A
N1457      N1458   1.309       .  A
N1457     Mn1459   2.132       .  S
N1458      C1460   1.333       .  A
Mn1459    Cl1483   2.527       .  S
C1460      C2709   1.482       .  S
C1461      C4949   1.504       .  S
N1462      N1463   1.307       .  A
N1462      N1468   1.308       .  A
N1462     Mn1470   2.146       .  S
N1463      C1471   1.346       .  A
N1464      N1466   1.307       .  A
N1464      N1465   1.324       .  A
N1464     Mn1482   2.195       .  S
N1465      C1472   1.360       .  A
N1466      N1467   1.310       .  A
N1466     Mn1470   2.154       .  S
N1467      C1472   1.345       .  A
N1468      N1469   1.322       .  A
N1468     Mn1482   2.183       .  S
N1469      C1471   1.355       .  A
Mn1470    Cl1483   2.503       .  S
C1471      C3205   1.460       .  S
C1472      C3285   1.482       .  S
N1473      N1474   1.338       .  A
N1473      N1479   1.319       .  A
N1473     Mn1481   2.315       .  S
N1474      C1484   1.376       .  A
N1475      N1476   1.311       .  A
N1475      N1477   1.320       .  A
N1475     Mn1482   2.146       .  S
N1476      C1485   1.336       .  A
N1477      N1478   1.339       .  A
N1477     Mn1481   2.318       .  S
N1478      C1485   1.374       .  A
N1479      N1480   1.308       .  A
N1479     Mn1482   2.137       .  S
N1480      C1484   1.336       .  A
Mn1481    Cl1483   2.569       .  S
Mn1482    Cl1483   2.536       .  S
C1484      C4725   1.502       .  S
C1485      C2469   1.496       .  S
N1486      N1487   1.311       .  A
N1486      N1492   1.308       .  A
N1486     Mn1515   2.165       .  S
N1487      C1494   1.346       .  A
N1488      N1490   1.306       .  A
N1488      N1489   1.324       .  A
N1488     Mn1504   2.184       .  S
N1489      C1495   1.357       .  A
N1490      N1491   1.307       .  A
N1490     Mn1515   2.150       .  S
N1491      C1495   1.348       .  A
N1492      N1493   1.322       .  A
N1492     Mn1504   2.177       .  S
N1493      C1494   1.354       .  A
C1494      C2450   1.465       .  S
C1495      C2949   1.472       .  S
N1496      N1502   1.320       .  A
N1496      N1497   1.338       .  A
N1496     Mn1526   2.315       .  S
N1497      C1505   1.373       .  A
N1498      N1499   1.310       .  A
N1498      N1500   1.321       .  A
N1498     Mn1504   2.139       .  S
N1499      C1506   1.334       .  A
N1500      N1501   1.336       .  A
N1500     Mn1526   2.319       .  S
N1501      C1506   1.375       .  A
N1502      N1503   1.308       .  A
N1502     Mn1504   2.128       .  S
N1503      C1505   1.331       .  A
Mn1504    Cl1528   2.540       .  S
C1505      C2690   1.483       .  S
C1506      C4866   1.496       .  S
N1507      N1508   1.312       .  A
N1507      N1513   1.307       .  A
N1507     Mn1515   2.163       .  S
N1508      C1516   1.348       .  A
N1509      N1511   1.307       .  A
N1509      N1510   1.323       .  A
N1509     Mn1527   2.178       .  S
N1510      C1517   1.356       .  A
N1511      N1512   1.309       .  A
N1511     Mn1515   2.157       .  S
N1512      C1517   1.346       .  A
N1513      N1514   1.320       .  A
N1513     Mn1527   2.170       .  S
N1514      C1516   1.352       .  A
Mn1515    Cl1528   2.516       .  S
C1516      C3381   1.459       .  S
C1517      C2437   1.475       .  S
N1518      N1519   1.342       .  A
N1518      N1524   1.319       .  A
N1518     Mn1526   2.333       .  S
N1519      C1529   1.380       .  A
N1520      N1521   1.309       .  A
N1520      N1522   1.319       .  A
N1520     Mn1527   2.137       .  S
N1521      C1530   1.333       .  A
N1522      N1523   1.336       .  A
N1522     Mn1526   2.301       .  S
N1523      C1530   1.372       .  A
N1524      N1525   1.305       .  A
N1524     Mn1527   2.123       .  S
N1525      C1529   1.329       .  A
Mn1526    Cl1528   2.550       .  S
Mn1527    Cl1528   2.531       .  S
C1529      C4789   1.509       .  S
C1530      C2421   1.482       .  S
N1531      N1532   1.338       .  A
N1531      N1537   1.320       .  A
N1531     Mn1560   2.320       .  S
N1532      C1539   1.374       .  A
N1533      N1535   1.318       .  A
N1533      N1534   1.307       .  A
N1533     Mn1549   2.123       .  S
N1534      C1540   1.331       .  A
N1535      N1536   1.338       .  A
N1535     Mn1560   2.312       .  S
N1536      C1540   1.374       .  A
N1537      N1538   1.311       .  A
N1537     Mn1549   2.137       .  S
N1538      C1539   1.334       .  A
C1539      C3429   1.490       .  S
C1540      C2418   1.485       .  S
N1541      N1547   1.309       .  A
N1541      N1542   1.313       .  A
N1541     Mn1571   2.164       .  S
N1542      C1550   1.349       .  A
N1543      N1544   1.322       .  A
N1543      N1545   1.308       .  A
N1543     Mn1549   2.181       .  S
N1544      C1551   1.354       .  A
N1545      N1546   1.309       .  A
N1545     Mn1571   2.152       .  S
N1546      C1551   1.346       .  A
N1547      N1548   1.320       .  A
N1547     Mn1549   2.177       .  S
N1548      C1550   1.352       .  A
Mn1549    Cl1573   2.530       .  S
C1550      C2754   1.455       .  S
C1551      C2386   1.459       .  S
N1552      N1553   1.340       .  A
N1552      N1558   1.318       .  A
N1552     Mn1560   2.320       .  S
N1553      C1561   1.377       .  A
N1554      N1556   1.319       .  A
N1554      N1555   1.308       .  A
N1554     Mn1572   2.130       .  S
N1555      C1562   1.333       .  A
N1556      N1557   1.338       .  A
N1556     Mn1560   2.310       .  S
N1557      C1562   1.373       .  A
N1558      N1559   1.306       .  A
N1558     Mn1572   2.132       .  S
N1559      C1561   1.332       .  A
Mn1560    Cl1573   2.569       .  S
C1561      C3333   1.501       .  S
C1562      C2517   1.486       .  S
N1563      N1564   1.309       .  A
N1563      N1569   1.308       .  A
N1563     Mn1571   2.159       .  S
N1564      C1574   1.348       .  A
N1565      N1566   1.321       .  A
N1565      N1567   1.309       .  A
N1565     Mn1572   2.181       .  S
N1566      C1575   1.353       .  A
N1567      N1568   1.311       .  A
N1567     Mn1571   2.159       .  S
N1568      C1575   1.346       .  A
N1569      N1570   1.322       .  A
N1569     Mn1572   2.179       .  S
N1570      C1574   1.355       .  A
Mn1571    Cl1573   2.511       .  S
Mn1572    Cl1573   2.529       .  S
C1574      C2405   1.469       .  S
C1575      C2549   1.462       .  S
N1576      N1577   1.310       .  A
N1576      N1582   1.310       .  A
N1576     Mn1605   2.161       .  S
N1577      C1584   1.346       .  A
N1578      N1580   1.309       .  A
N1578      N1579   1.322       .  A
N1578     Mn1594   2.197       .  S
N1579      C1585   1.357       .  A
N1580      N1581   1.314       .  A
N1580     Mn1605   2.169       .  S
N1581      C1585   1.349       .  A
N1582      N1583   1.320       .  A
N1582     Mn1594   2.175       .  S
N1583      C1584   1.352       .  A
C1584      C2354   1.461       .  S
C1585      C2677   1.477       .  S
N1586      N1592   1.319       .  A
N1586      N1587   1.338       .  A
N1586     Mn1616   2.310       .  S
N1587      C1595   1.374       .  A
N1588      N1589   1.312       .  A
N1588      N1590   1.320       .  A
N1588     Mn1594   2.150       .  S
N1589      C1596   1.337       .  A
N1590      N1591   1.336       .  A
N1590     Mn1616   2.308       .  S
N1591      C1596   1.371       .  A
N1592      N1593   1.306       .  A
N1592     Mn1594   2.125       .  S
N1593      C1595   1.332       .  A
Mn1594    Cl1618   2.526       .  S
C1595      C3765   1.486       .  S
C1596      C5125   1.488       .  S
N1597      N1598   1.312       .  A
N1597      N1603   1.309       .  A
N1597     Mn1605   2.161       .  S
N1598      C1606   1.348       .  A
N1599      N1601   1.309       .  A
N1599      N1600   1.318       .  A
N1599     Mn1617   2.173       .  S
N1600      C1607   1.353       .  A
N1601      N1602   1.316       .  A
N1601     Mn1605   2.172       .  S
N1602      C1607   1.350       .  A
N1603      N1604   1.318       .  A
N1603     Mn1617   2.168       .  S
N1604      C1606   1.349       .  A
Mn1605    Cl1618   2.532       .  S
C1606      C3061   1.449       .  S
C1607      C2370   1.470       .  S
N1608      N1609   1.339       .  A
N1608      N1614   1.317       .  A
N1608     Mn1616   2.318       .  S
N1609      C1619   1.377       .  A
N1610      N1611   1.309       .  A
N1610      N1612   1.317       .  A
N1610     Mn1617   2.136       .  S
N1611      C1620   1.336       .  A
N1612      N1613   1.339       .  A
N1612     Mn1616   2.316       .  S
N1613      C1620   1.377       .  A
N1614      N1615   1.310       .  A
N1614     Mn1617   2.136       .  S
N1615      C1619   1.335       .  A
Mn1616    Cl1618   2.574       .  S
Mn1617    Cl1618   2.519       .  S
C1619      C4677   1.504       .  S
C1620      C3525   1.508       .  S
N1621      N1622   1.313       .  A
N1621      N1627   1.309       .  A
N1621     Mn1650   2.174       .  S
N1622      C1629   1.349       .  A
N1623      N1625   1.308       .  A
N1623      N1624   1.322       .  A
N1623     Mn1639   2.185       .  S
N1624      C1630   1.355       .  A
N1625      N1626   1.310       .  A
N1625     Mn1650   2.156       .  S
N1626      C1630   1.346       .  A
N1627      N1628   1.319       .  A
N1627     Mn1639   2.165       .  S
N1628      C1629   1.351       .  A
C1629      C2389   1.462       .  S
C1630      C2738   1.464       .  S
N1631      N1637   1.317       .  A
N1631      N1632   1.340       .  A
N1631     Mn1661   2.317       .  S
N1632      C1640   1.377       .  A
N1633      N1634   1.312       .  A
N1633      N1635   1.319       .  A
N1633     Mn1639   2.146       .  S
N1634      C1641   1.337       .  A
N1635      N1636   1.335       .  A
N1635     Mn1661   2.301       .  S
N1636      C1641   1.372       .  A
N1637      N1638   1.305       .  A
N1637     Mn1639   2.118       .  S
N1638      C1640   1.332       .  A
Mn1639    Cl1663   2.531       .  S
C1640      C2818   1.497       .  S
C1641      C3413   1.492       .  S
N1642      N1643   1.313       .  A
N1642      N1648   1.309       .  A
N1642     Mn1650   2.171       .  S
N1643      C1651   1.349       .  A
N1644      N1646   1.309       .  A
N1644      N1645   1.322       .  A
N1644     Mn1662   2.184       .  S
N1645      C1652   1.355       .  A
N1646      N1647   1.309       .  A
N1646     Mn1650   2.156       .  S
N1647      C1652   1.345       .  A
N1648      N1649   1.321       .  A
N1648     Mn1662   2.178       .  S
N1649      C1651   1.353       .  A
Mn1650    Cl1663   2.507       .  S
C1651      C2322   1.461       .  S
C1652      C2338   1.466       .  S
N1653      N1654   1.338       .  A
N1653      N1659   1.319       .  A
N1653     Mn1661   2.319       .  S
N1654      C1664   1.374       .  A
N1655      N1656   1.308       .  A
N1655      N1657   1.319       .  A
N1655     Mn1662   2.132       .  S
N1656      C1665   1.333       .  A
N1657      N1658   1.337       .  A
N1657     Mn1661   2.304       .  S
N1658      C1665   1.372       .  A
N1659      N1660   1.309       .  A
N1659     Mn1662   2.132       .  S
N1660      C1664   1.333       .  A
Mn1661    Cl1663   2.565       .  S
Mn1662    Cl1663   2.535       .  S
C1664      C2898   1.490       .  S
C1665      C3173   1.482       .  S
N1666      N1667   1.336       .  A
N1666      N1672   1.318       .  A
N1666     Mn1695   2.307       .  S
N1667      C1674   1.375       .  A
N1668      N1670   1.319       .  A
N1668      N1669   1.311       .  A
N1668     Mn1684   2.149       .  S
N1669      C1675   1.337       .  A
N1670      N1671   1.336       .  A
N1670     Mn1695   2.301       .  S
N1671      C1675   1.371       .  A
N1672      N1673   1.311       .  A
N1672     Mn1684   2.147       .  S
N1673      C1674   1.337       .  A
C1674      C4933   1.505       .  S
C1675      C4357   1.489       .  S
N1676      N1682   1.309       .  A
N1676      N1677   1.310       .  A
N1676     Mn1706   2.162       .  S
N1677      C1685   1.349       .  A
N1678      N1679   1.318       .  A
N1678      N1680   1.311       .  A
N1678     Mn1684   2.178       .  S
N1679      C1686   1.350       .  A
N1680      N1681   1.316       .  A
N1680     Mn1706   2.172       .  S
N1681      C1686   1.349       .  A
N1682      N1683   1.320       .  A
N1682     Mn1684   2.174       .  S
N1683      C1685   1.352       .  A
Mn1684    Cl1708   2.527       .  S
C1685      C2290   1.459       .  S
C1686      C2306   1.453       .  S
N1687      N1688   1.336       .  A
N1687      N1693   1.319       .  A
N1687     Mn1695   2.305       .  S
N1688      C1696   1.371       .  A
N1689      N1691   1.320       .  A
N1689      N1690   1.311       .  A
N1689     Mn1707   2.147       .  S
N1690      C1697   1.337       .  A
N1691      N1692   1.337       .  A
N1691     Mn1695   2.311       .  S
N1692      C1697   1.374       .  A
N1693      N1694   1.311       .  A
N1693     Mn1707   2.144       .  S
N1694      C1696   1.336       .  A
Mn1695    Cl1708   2.558       .  S
C1696      C4085   1.487       .  S
C1697      C4661   1.497       .  S
N1698      N1699   1.316       .  A
N1698      N1704   1.309       .  A
N1698     Mn1706   2.170       .  S
N1699      C1709   1.352       .  A
N1700      N1701   1.322       .  A
N1700      N1702   1.309       .  A
N1700     Mn1707   2.190       .  S
N1701      C1710   1.356       .  A
N1702      N1703   1.313       .  A
N1702     Mn1706   2.162       .  S
N1703      C1710   1.349       .  A
N1704      N1705   1.318       .  A
N1704     Mn1707   2.179       .  S
N1705      C1709   1.352       .  A
Mn1706    Cl1708   2.545       .  S
Mn1707    Cl1708   2.529       .  S
C1709      C2373   1.472       .  S
C1710      C3093   1.477       .  S
N1711      N1712   1.308       .  A
N1711      N1717   1.308       .  A
N1711     Mn1740   2.149       .  S
N1712      C1719   1.347       .  A
N1713      N1715   1.308       .  A
N1713      N1714   1.323       .  A
N1713     Mn1729   2.194       .  S
N1714      C1720   1.358       .  A
N1715      N1716   1.314       .  A
N1715     Mn1740   2.168       .  S
N1716      C1720   1.349       .  A
N1717      N1718   1.323       .  A
N1717     Mn1729   2.182       .  S
N1718      C1719   1.355       .  A
C1719      C2341   1.465       .  S
C1720      C2258   1.479       .  S
N1721      N1727   1.319       .  A
N1721      N1722   1.337       .  A
N1721     Mn1751   2.312       .  S
N1722      C1730   1.374       .  A
N1723      N1724   1.310       .  A
N1723      N1725   1.320       .  A
N1723     Mn1729   2.140       .  S
N1724      C1731   1.335       .  A
N1725      N1726   1.337       .  A
N1725     Mn1751   2.316       .  S
N1726      C1731   1.374       .  A
N1727      N1728   1.307       .  A
N1727     Mn1729   2.125       .  S
N1728      C1730   1.332       .  A
Mn1729    Cl1753   2.539       .  S
C1730      C2274   1.490       .  S
C1731      C2869   1.493       .  S
N1732      N1733   1.307       .  A
N1732      N1738   1.308       .  A
N1732     Mn1740   2.152       .  S
N1733      C1741   1.344       .  A
N1734      N1736   1.308       .  A
N1734      N1735   1.321       .  A
N1734     Mn1752   2.173       .  S
N1735      C1742   1.354       .  A
N1736      N1737   1.310       .  A
N1736     Mn1740   2.163       .  S
N1737      C1742   1.346       .  A
N1738      N1739   1.325       .  A
N1738     Mn1752   2.189       .  S
N1739      C1741   1.358       .  A
Mn1740    Cl1753   2.505       .  S
C1741      C2565   1.476       .  S
C1742      C2402   1.469       .  S
N1743      N1744   1.337       .  A
N1743      N1749   1.320       .  A
N1743     Mn1751   2.310       .  S
N1744      C1754   1.372       .  A
N1745      N1746   1.306       .  A
N1745      N1747   1.318       .  A
N1745     Mn1752   2.131       .  S
N1746      C1755   1.334       .  A
N1747      N1748   1.340       .  A
N1747     Mn1751   2.319       .  S
N1748      C1755   1.378       .  A
N1749      N1750   1.312       .  A
N1749     Mn1752   2.147       .  S
N1750      C1754   1.336       .  A
Mn1751    Cl1753   2.566       .  S
Mn1752    Cl1753   2.538       .  S
C1754      C2498   1.490       .  S
C1755      C2242   1.508       .  S
N1756      N1757   1.338       .  A
N1756      N1762   1.321       .  A
N1756     Mn1785   2.316       .  S
N1757      C1764   1.373       .  A
N1758      N1760   1.320       .  A
N1758      N1759   1.309       .  A
N1758     Mn1774   2.131       .  S
N1759      C1765   1.332       .  A
N1760      N1761   1.339       .  A
N1760     Mn1785   2.322       .  S
N1761      C1765   1.375       .  A
N1762      N1763   1.310       .  A
N1762     Mn1774   2.146       .  S
N1763      C1764   1.335       .  A
C1764      C5109   1.491       .  S
C1765      C2210   1.488       .  S
N1766      N1772   1.309       .  A
N1766      N1767   1.309       .  A
N1766     Mn1796   2.159       .  S
N1767      C1775   1.348       .  A
N1768      N1769   1.322       .  A
N1768      N1770   1.309       .  A
N1768     Mn1774   2.178       .  S
N1769      C1776   1.354       .  A
N1770      N1771   1.309       .  A
N1770     Mn1796   2.157       .  S
N1771      C1776   1.347       .  A
N1772      N1773   1.323       .  A
N1772     Mn1774   2.184       .  S
N1773      C1775   1.355       .  A
Mn1774    Cl1798   2.528       .  S
C1775      C2629   1.460       .  S
C1776      C2357   1.462       .  S
N1777      N1778   1.341       .  A
N1777      N1783   1.317       .  A
N1777     Mn1785   2.318       .  S
N1778      C1786   1.379       .  A
N1779      N1781   1.317       .  A
N1779      N1780   1.305       .  A
N1779     Mn1797   2.128       .  S
N1780      C1787   1.331       .  A
N1781      N1782   1.341       .  A
N1781     Mn1785   2.320       .  S
N1782      C1787   1.379       .  A
N1783      N1784   1.304       .  A
N1783     Mn1797   2.121       .  S
N1784      C1786   1.332       .  A
Mn1785    Cl1798   2.563       .  S
C1786      C2277   1.503       .  S
C1787      C4901   1.512       .  S
N1788      N1789   1.316       .  A
N1788      N1794   1.308       .  A
N1788     Mn1796   2.172       .  S
N1789      C1799   1.350       .  A
N1790      N1791   1.321       .  A
N1790      N1792   1.307       .  A
N1790     Mn1797   2.175       .  S
N1791      C1800   1.352       .  A
N1792      N1793   1.312       .  A
N1792     Mn1796   2.158       .  S
N1793      C1800   1.348       .  A
N1794      N1795   1.317       .  A
N1794     Mn1797   2.164       .  S
N1795      C1799   1.349       .  A
Mn1796    Cl1798   2.535       .  S
Mn1797    Cl1798   2.513       .  S
C1799      C2309   1.452       .  S
C1800      C2226   1.460       .  S
N1801      N1802   1.310       .  A
N1801      N1807   1.308       .  A
N1801     Mn1830   2.164       .  S
N1802      C1809   1.349       .  A
N1803      N1805   1.309       .  A
N1803      N1804   1.319       .  A
N1803     Mn1819   2.180       .  S
N1804      C1810   1.352       .  A
N1805      N1806   1.316       .  A
N1805     Mn1830   2.174       .  S
N1806      C1810   1.352       .  A
N1807      N1808   1.323       .  A
N1807     Mn1819   2.180       .  S
N1808      C1809   1.354       .  A
C1809      C3074   1.470       .  S
C1810      C2645   1.471       .  S
N1811      N1817   1.319       .  A
N1811      N1812   1.336       .  A
N1811     Mn1841   2.305       .  S
N1812      C1820   1.372       .  A
N1813      N1814   1.309       .  A
N1813      N1815   1.319       .  A
N1813     Mn1819   2.135       .  S
N1814      C1821   1.335       .  A
N1815      N1816   1.335       .  A
N1815     Mn1841   2.302       .  S
N1816      C1821   1.372       .  A
N1817      N1818   1.308       .  A
N1817     Mn1819   2.130       .  S
N1818      C1820   1.332       .  A
Mn1819    Cl1843   2.531       .  S
C1820      C2581   1.480       .  S
C1821      C4565   1.487       .  S
N1822      N1823   1.313       .  A
N1822      N1828   1.310       .  A
N1822     Mn1830   2.168       .  S
N1823      C1831   1.350       .  A
N1824      N1826   1.309       .  A
N1824      N1825   1.320       .  A
N1824     Mn1842   2.169       .  S
N1825      C1832   1.352       .  A
N1826      N1827   1.311       .  A
N1826     Mn1830   2.164       .  S
N1827      C1832   1.347       .  A
N1828      N1829   1.320       .  A
N1828     Mn1842   2.180       .  S
N1829      C1831   1.352       .  A
Mn1830    Cl1843   2.534       .  S
C1831      C2229   1.459       .  S
C1832      C2293   1.460       .  S
N1833      N1834   1.336       .  A
N1833      N1839   1.318       .  A
N1833     Mn1841   2.305       .  S
N1834      C1844   1.374       .  A
N1835      N1836   1.310       .  A
N1835      N1837   1.318       .  A
N1835     Mn1842   2.136       .  S
N1836      C1845   1.335       .  A
N1837      N1838   1.336       .  A
N1837     Mn1841   2.307       .  S
N1838      C1845   1.374       .  A
N1839      N1840   1.311       .  A
N1839     Mn1842   2.145       .  S
N1840      C1844   1.339       .  A
Mn1841    Cl1843   2.552       .  S
Mn1842    Cl1843   2.530       .  S
C1844      C4325   1.503       .  S
C1845      C2245   1.494       .  S
N1846      N1847   1.337       .  A
N1846      N1852   1.319       .  A
N1846     Mn1875   2.315       .  S
N1847      C1854   1.373       .  A
N1848      N1850   1.318       .  A
N1848      N1849   1.309       .  A
N1848     Mn1864   2.132       .  S
N1849      C1855   1.333       .  A
N1850      N1851   1.338       .  A
N1850     Mn1875   2.313       .  S
N1851      C1855   1.374       .  A
N1852      N1853   1.311       .  A
N1852     Mn1864   2.138       .  S
N1853      C1854   1.335       .  A
C1854      C3186   1.489       .  S
C1855      C2213   1.488       .  S
N1856      N1862   1.310       .  A
N1856      N1857   1.317       .  A
N1856     Mn1886   2.187       .  S
N1857      C1865   1.354       .  A
N1858      N1859   1.321       .  A
N1858      N1860   1.310       .  A
N1858     Mn1864   2.181       .  S
N1859      C1866   1.352       .  A
N1860      N1861   1.313       .  A
N1860     Mn1886   2.168       .  S
N1861      C1866   1.348       .  A
N1862      N1863   1.319       .  A
N1862     Mn1864   2.180       .  S
N1863      C1865   1.352       .  A
Mn1864    Cl1888   2.533       .  S
C1865      C2261   1.479       .  S
C1866      C2325   1.463       .  S
N1867      N1868   1.337       .  A
N1867      N1873   1.320       .  A
N1867     Mn1875   2.313       .  S
N1868      C1876   1.373       .  A
N1869      N1871   1.319       .  A
N1869      N1870   1.313       .  A
N1869     Mn1887   2.154       .  S
N1870      C1877   1.337       .  A
N1871      N1872   1.337       .  A
N1871     Mn1875   2.311       .  S
N1872      C1877   1.373       .  A
N1873      N1874   1.311       .  A
N1873     Mn1887   2.140       .  S
N1874      C1876   1.335       .  A
Mn1875    Cl1888   2.567       .  S
C1876      C2613   1.488       .  S
C1877      C2466   1.494       .  S
N1878      N1879   1.313       .  A
N1878      N1884   1.310       .  A
N1878     Mn1886   2.174       .  S
N1879      C1889   1.351       .  A
N1880      N1881   1.325       .  A
N1880      N1882   1.310       .  A
N1880     Mn1887   2.204       .  S
N1881      C1890   1.360       .  A
N1882      N1883   1.311       .  A
N1882     Mn1886   2.165       .  S
N1883      C1890   1.346       .  A
N1884      N1885   1.319       .  A
N1884     Mn1887   2.172       .  S
N1885      C1889   1.350       .  A
Mn1886    Cl1888   2.529       .  S
Mn1887    Cl1888   2.538       .  S
C1889      C2725   1.456       .  S
C1890      C2597   1.487       .  S
N1891      N1892   1.339       .  A
N1891      N1897   1.321       .  A
N1891     Mn1920   2.327       .  S
N1892      C1899   1.375       .  A
N1893      N1895   1.320       .  A
N1893      N1894   1.309       .  A
N1893     Mn1909   2.133       .  S
N1894      C1900   1.332       .  A
N1895      N1896   1.338       .  A
N1895     Mn1920   2.316       .  S
N1896      C1900   1.374       .  A
N1897      N1898   1.309       .  A
N1897     Mn1909   2.131       .  S
N1898      C1899   1.332       .  A
C1899      C4834   1.488       .  S
C1900      C4405   1.486       .  S
N1901      N1907   1.309       .  A
N1901      N1902   1.317       .  A
N1901     Mn1931   2.177       .  S
N1902      C1910   1.351       .  A
N1903      N1904   1.322       .  A
N1903      N1905   1.309       .  A
N1903     Mn1909   2.181       .  S
N1904      C1911   1.354       .  A
N1905      N1906   1.311   1_556  A
N1905     Mn1931   2.162       .  S
N1906      C1911   1.349   1_554  A
N1907      N1908   1.319       .  A
N1907     Mn1909   2.177       .  S
N1908      C1910   1.352       .  A
Mn1909    Cl1933   2.524       .  S
C1910      C2978   1.464   1_556  S
C1911      C2453   1.464   1_556  S
N1912      N1913   1.342       .  A
N1912      N1918   1.318       .  A
N1912     Mn1920   2.330       .  S
N1913      C1921   1.380       .  A
N1914      N1916   1.319       .  A
N1914      N1915   1.310       .  A
N1914     Mn1932   2.133       .  S
N1915      C1922   1.334       .  A
N1916      N1917   1.339       .  A
N1916     Mn1920   2.320       .  S
N1917      C1922   1.375       .  A
N1918      N1919   1.307       .  A
N1918     Mn1932   2.132       .  S
N1919      C1921   1.333       .  A
Mn1920    Cl1933   2.562       .  S
C1921      C4501   1.509       .  S
C1922      C4693   1.492       .  S
N1923      N1924   1.314   1_556  A
N1923      N1929   1.309       .  A
N1923     Mn1931   2.174       .  S
N1924      C1934   1.350   1_554  A
N1925      N1926   1.318       .  A
N1925      N1927   1.309       .  A
N1925     Mn1932   2.170       .  S
N1926      C1935   1.350       .  A
N1927      N1928   1.312   1_556  A
N1927     Mn1931   2.160       .  S
N1928      C1935   1.348   1_554  A
N1929      N1930   1.319       .  A
N1929     Mn1932   2.169       .  S
N1930      C1934   1.351       .  A
Mn1931    Cl1933   2.544       .  S
Mn1932    Cl1933   2.520       .  S
C1934      C2194   1.457   1_556  S
C1935      C3138   1.459   1_556  S
N1936      N1937   1.309       .  A
N1936      N1942   1.310       .  A
N1936     Mn1965   2.164       .  S
N1937      C1944   1.349       .  A
N1938      N1940   1.311       .  A
N1938      N1939   1.318       .  A
N1938     Mn1954   2.176       .  S
N1939      C1945   1.350       .  A
N1940      N1941   1.318       .  A
N1940     Mn1965   2.190       .  S
N1941      C1945   1.354       .  A
N1942      N1943   1.323       .  A
N1942     Mn1954   2.185       .  S
N1943      C1944   1.356       .  A
C1944      C2530   1.476   1_565  S
C1945      C3493   1.475       .  S
N1946      N1952   1.319       .  A
N1946      N1947   1.338       .  A
N1946     Mn1976   2.306       .  S
N1947      C1955   1.373       .  A
N1948      N1949   1.312       .  A
N1948      N1950   1.320       .  A
N1948     Mn1954   2.148       .  S
N1949      C1956   1.337       .  A
N1950      N1951   1.337       .  A
N1950     Mn1976   2.311       .  S
N1951      C1956   1.372       .  A
N1952      N1953   1.310       .  A
N1952     Mn1954   2.147       .  S
N1953      C1955   1.335       .  A
Mn1954    Cl1978   2.533       .  S
C1955      C3717   1.490       .  S
C1956      C5221   1.490       .  S
N1957      N1958   1.315       .  A
N1957      N1963   1.310       .  A
N1957     Mn1965   2.176       .  S
N1958      C1966   1.353       .  A
N1959      N1961   1.310       .  A
N1959      N1960   1.318       .  A
N1959     Mn1977   2.174       .  S
N1960      C1967   1.352       .  A
N1961      N1962   1.317       .  A
N1961     Mn1965   2.180       .  S
N1962      C1967   1.351       .  A
N1963      N1964   1.321       .  A
N1963     Mn1977   2.191       .  S
N1964      C1966   1.354       .  A
Mn1965    Cl1978   2.545       .  S
C1966      C2178   1.484   1_565  S
C1967      C3013   1.464   1_565  S
N1968      N1969   1.335       .  A
N1968      N1974   1.320       .  A
N1968     Mn1976   2.298       .  S
N1969      C1979   1.371       .  A
N1970      N1971   1.309       .  A
N1970      N1972   1.319       .  A
N1970     Mn1977   2.135       .  S
N1971      C1980   1.333       .  A
N1972      N1973   1.339       .  A
N1972     Mn1976   2.320       .  S
N1973      C1980   1.375       .  A
N1974      N1975   1.313       .  A
N1974     Mn1977   2.157       .  S
N1975      C1979   1.339       .  A
Mn1976    Cl1978   2.560       .  S
Mn1977    Cl1978   2.532       .  S
C1979      C5093   1.491       .  S
C1980      C3541   1.492       .  S
N1981      N1982   1.315   1_556  A
N1981      N1987   1.307       .  A
N1981     Mn2010   2.166       .  S
N1982      C1989   1.350   1_554  A
N1983      N1985   1.308       .  A
N1983      N1984   1.318       .  A
N1983     Mn1999   2.176       .  S
N1984      C1990   1.351       .  A
N1985      N1986   1.315       .  A
N1985     Mn2010   2.160       .  S
N1986      C1990   1.349       .  A
N1987      N1988   1.317       .  A
N1987     Mn1999   2.163       .  S
N1988      C1989   1.349       .  A
C1989      C3269   1.450   1_556  S
C1990      C2165   1.453   1_556  S
N1991      N1997   1.318       .  A
N1991      N1992   1.343       .  A
N1991     Mn2021   2.336       .  S
N1992      C2000   1.381       .  A
N1993      N1994   1.307       .  A
N1993      N1995   1.318       .  A
N1993     Mn1999   2.135       .  S
N1994      C2001   1.332       .  A
N1995      N1996   1.342       .  A
N1995     Mn2021   2.327       .  S
N1996      C2001   1.380       .  A
N1997      N1998   1.305       .  A
N1997     Mn1999   2.119       .  S
N1998      C2000   1.332       .  A
Mn1999    Cl2023   2.505       .  S
C2000      C4117   1.512       .  S
C2001      C5077   1.511       .  S
N2002      N2003   1.315       .  A
N2002      N2008   1.309       .  A
N2002     Mn2010   2.166       .  S
N2003      C2011   1.349       .  A
N2004      N2006   1.309       .  A
N2004      N2005   1.322       .  A
N2004     Mn2022   2.181       .  S
N2005      C2012   1.354       .  A
N2006      N2007   1.309   1_556  A
N2006     Mn2010   2.155       .  S
N2007      C2012   1.345   1_554  A
N2008      N2009   1.318       .  A
N2008     Mn2022   2.176       .  S
N2009      C2011   1.351       .  A
Mn2010    Cl2023   2.556       .  S
C2011      C2837   1.454   1_556  S
C2012      C2485   1.464   1_556  S
N2013      N2014   1.337       .  A
N2013      N2019   1.321       .  A
N2013     Mn2021   2.321       .  S
N2014      C2024   1.375       .  A
N2015      N2016   1.307       .  A
N2015      N2017   1.320       .  A
N2015     Mn2022   2.132       .  S
N2016      C2025   1.333       .  A
N2017      N2018   1.340       .  A
N2017     Mn2021   2.328       .  S
N2018      C2025   1.379       .  A
N2019      N2020   1.312       .  A
N2019     Mn2022   2.144       .  S
N2020      C2024   1.335       .  A
Mn2021    Cl2023   2.576       .  S
Mn2022    Cl2023   2.512       .  S
C2024      C4978   1.494       .  S
C2025      C4261   1.507       .  S
N2026      N2027   1.336       .  A
N2026      N2032   1.319       .  A
N2026     Mn2055   2.312       .  S
N2027      C2034   1.374       .  A
N2028      N2030   1.318       .  A
N2028      N2029   1.309       .  A
N2028     Mn2044   2.138       .  S
N2029      C2035   1.334       .  A
N2030      N2031   1.339       .  A
N2030     Mn2055   2.311       .  S
N2031      C2035   1.375       .  A
N2032      N2033   1.311       .  A
N2032     Mn2044   2.138       .  S
N2033      C2034   1.336       .  A
C2034      C4181   1.497       .  S
C2035      C3938   1.495       .  S
N2036      N2042   1.309       .  A
N2036      N2037   1.319       .  A
N2036     Mn2066   2.185       .  S
N2037      C2045   1.355       .  A
N2038      N2039   1.319       .  A
N2038      N2040   1.311       .  A
N2038     Mn2044   2.182       .  S
N2039      C2046   1.352       .  A
N2040      N2041   1.315       .  A
N2040     Mn2066   2.174       .  S
N2041      C2046   1.351       .  A
N2042      N2043   1.314       .  A
N2042     Mn2044   2.161       .  S
N2043      C2045   1.346       .  A
Mn2044    Cl2068   2.504       .  S
C2045      C3234   1.467       .  S
C2046      C2853   1.469       .  S
N2047      N2048   1.341       .  A
N2047      N2053   1.316       .  A
N2047     Mn2055   2.316       .  S
N2048      C2056   1.379       .  A
N2049      N2051   1.319       .  A
N2049      N2050   1.311       .  A
N2049     Mn2067   2.140       .  S
N2050      C2057   1.337       .  A
N2051      N2052   1.337       .  A
N2051     Mn2055   2.312       .  S
N2052      C2057   1.374       .  A
N2053      N2054   1.305       .  A
N2053     Mn2067   2.128       .  S
N2054      C2056   1.331       .  A
Mn2055    Cl2068   2.578       .  S
C2056      C4037   1.508       .  S
C2057      C4133   1.497       .  S
N2058      N2059   1.318       .  A
N2058      N2064   1.310       .  A
N2058     Mn2066   2.187       .  S
N2059      C2069   1.352       .  A
N2060      N2061   1.315       .  A
N2060      N2062   1.310       .  A
N2060     Mn2067   2.170       .  S
N2061      C2070   1.348       .  A
N2062      N2063   1.318       .  A
N2062     Mn2066   2.177       .  S
N2063      C2070   1.352       .  A
N2064      N2065   1.315       .  A
N2064     Mn2067   2.160       .  S
N2065      C2069   1.347       .  A
Mn2066    Cl2068   2.573       .  S
Mn2067    Cl2068   2.502       .  S
C2069      C2162   1.453       .  S
C2070      C3301   1.458       .  S
N2071      N2072   1.337       .  A
N2071      N2077   1.320       .  A
N2071     Mn2100   2.308       .  S
N2072      C2079   1.372       .  A
N2073      N2075   1.319       .  A
N2073      N2074   1.305       .  A
N2073     Mn2089   2.127       .  S
N2074      C2080   1.333       .  A
N2075      N2076   1.340       .  A
N2075     Mn2100   2.321       .  S
N2076      C2080   1.378       .  A
N2077      N2078   1.311       .  A
N2077     Mn2089   2.148       .  S
N2078      C2079   1.336       .  A
C2079      C4645   1.488       .  S
C2080      C3621   1.507       .  S
N2081      N2087   1.307       .  A
N2081      N2082   1.306       .  A
N2081     Mn2111   2.148       .  S
N2082      C2090   1.347       .  A
N2083      N2084   1.322       .  A
N2083      N2085   1.306       .  A
N2083     Mn2089   2.177       .  S
N2084      C2091   1.355       .  A
N2085      N2086   1.311       .  A
N2085     Mn2111   2.159       .  S
N2086      C2091   1.350       .  A
N2087      N2088   1.325       .  A
N2087     Mn2089   2.192       .  S
N2088      C2090   1.359       .  A
Mn2089    Cl2113   2.539       .  S
C2090      C3474   1.481       .  S
C2091      C2917   1.480       .  S
N2092      N2093   1.339       .  A
N2092      N2098   1.321       .  A
N2092     Mn2100   2.325       .  S
N2093      C2101   1.375       .  A
N2094      N2096   1.320       .  A
N2094      N2095   1.312       .  A
N2094     Mn2112   2.151       .  S
N2095      C2102   1.337       .  A
N2096      N2097   1.337       .  A
N2096     Mn2100   2.312       .  S
N2097      C2102   1.373       .  A
N2098      N2099   1.310       .  A
N2098     Mn2112   2.139       .  S
N2099      C2101   1.333       .  A
Mn2100    Cl2113   2.550       .  S
C2101      C3557   1.491       .  S
C2102      C4517   1.495       .  S
N2103      N2104   1.308       .  A
N2103      N2109   1.308       .  A
N2103     Mn2111   2.146       .  S
N2104      C2114   1.344       .  A
N2105      N2106   1.324       .  A
N2105      N2107   1.308       .  A
N2105     Mn2112   2.193       .  S
N2106      C2115   1.359       .  A
N2107      N2108   1.313       .  A
N2107     Mn2111   2.167       .  S
N2108      C2115   1.347       .  A
N2109      N2110   1.321       .  A
N2109     Mn2112   2.182       .  S
N2110      C2114   1.354       .  A
Mn2111    Cl2113   2.522       .  S
Mn2112    Cl2113   2.542       .  S
C2114      C3045   1.458       .  S
C2115      C2181   1.484       .  S
N2116      N2117   1.307       .  A
N2116      N2122   1.309       .  A
N2116     Mn2145   2.157       .  S
N2117      C2124   1.347       .  A
N2118      N2120   1.310       .  A
N2118      N2119   1.318       .  A
N2118     Mn2134   2.176       .  S
N2119      C2125   1.351       .  A
N2120      N2121   1.315       .  A
N2120     Mn2145   2.172       .  S
N2121      C2125   1.350       .  A
N2122      N2123   1.325       .  A
N2122     Mn2134   2.191       .  S
N2123      C2124   1.358       .  A
C2124      C2434   1.476   1_565  S
C2125      C3394   1.466       .  S
N2126      N2132   1.319       .  A
N2126      N2127   1.338       .  A
N2126     Mn2156   2.310       .  S
N2127      C2135   1.373       .  A
N2128      N2129   1.310       .  A
N2128      N2130   1.320       .  A
N2128     Mn2134   2.135       .  S
N2129      C2136   1.333       .  A
N2130      N2131   1.340       .  A
N2130     Mn2156   2.330       .  S
N2131      C2136   1.376       .  A
N2132      N2133   1.311       .  A
N2132     Mn2134   2.145       .  S
N2133      C2135   1.337       .  A
Mn2134    Cl2158   2.536       .  S
C2135      C3826   1.495       .  S
C2136      C4757   1.494       .  S
N2137      N2138   1.315       .  A
N2137      N2143   1.308       .  A
N2137     Mn2145   2.170       .  S
N2138      C2146   1.351       .  A
N2139      N2141   1.309       .  A
N2139      N2140   1.321       .  A
N2139     Mn2157   2.178       .  S
N2140      C2147   1.352       .  A
N2141      N2142   1.312       .  A
N2141     Mn2145   2.165       .  S
N2142      C2147   1.347       .  A
N2143      N2144   1.320       .  A
N2143     Mn2157   2.186       .  S
N2144      C2146   1.355       .  A
Mn2145    Cl2158   2.525       .  S
C2146      C3154   1.481       .  S
C2147      C2197   1.459   1_565  S
N2148      N2149   1.340       .  A
N2148      N2154   1.319       .  A
N2148     Mn2156   2.323       .  S
N2149      C2159   1.378       .  A
N2150      N2151   1.309       .  A
N2150      N2152   1.318       .  A
N2150     Mn2157   2.138       .  S
N2151      C2160   1.334       .  A
N2152      N2153   1.338       .  A
N2152     Mn2156   2.305       .  S
N2153      C2160   1.373       .  A
N2154      N2155   1.309       .  A
N2154     Mn2157   2.141       .  S
N2155      C2159   1.334       .  A
Mn2156    Cl2158   2.574       .  S
Mn2157    Cl2158   2.525       .  S
C2159      C4709   1.511       .  S
C2160      C4069   1.489       .  S
C2161      C2162   1.400   1_455  A
C2161      C2166   1.401       .  A
C2161      H2168   1.084   1_455  S
C2162      C2163   1.410   1_655  A
C2163      C2164   1.393       .  A
C2163      C2170   1.510       .  S
C2164      C2165   1.398       .  A
C2164      H2169   1.085       .  S
C2165      C2166   1.408       .  A
C2166      C2167   1.505   1_554  S
C2167      H2171   1.111   1_556  S
C2167      H2172   1.110       .  S
C2167      H2173   1.111       .  S
C2170      H2174   1.111       .  S
C2170      H2175   1.109   1_455  S
C2170      H2176   1.111       .  S
C2177      C2178   1.402       .  A
C2177      C2182   1.397       .  A
C2177      H2184   1.084       .  S
C2178      C2179   1.418   1_545  A
C2179      C2180   1.407   1_465  A
C2179      C2186   1.507       .  S
C2180      C2181   1.405       .  A
C2180      H2185   1.084       .  S
C2181      C2182   1.419   1_655  A
C2182      C2183   1.512       .  S
C2183      H2187   1.111       .  S
C2183      H2188   1.109       .  S
C2183      H2189   1.110       .  S
C2186      H2190   1.109       .  S
C2186      H2191   1.111       .  S
C2186      H2192   1.111   1_455  S
C2193      C2194   1.397       .  A
C2193      C2198   1.388       .  A
C2193      H2200   1.085       .  S
C2194      C2195   1.409       .  A
C2195      C2196   1.405       .  A
C2195      C2202   1.505   1_554  S
C2196      C2197   1.403       .  A
C2196      H2201   1.084   1_545  S
C2197      C2198   1.413       .  A
C2198      C2199   1.511       .  S
C2199      H2203   1.111       .  S
C2199      H2204   1.111       .  S
C2199      H2205   1.109       .  S
C2202      H2206   1.110       .  S
C2202      H2207   1.110       .  S
C2202      H2208   1.111   1_545  S
C2209      C2210   1.405       .  A
C2209      C2214   1.410       .  A
C2209      H2216   1.084       .  S
C2210      C2211   1.416       .  A
C2211      C2212   1.417       .  A
C2211      C2218   1.505       .  S
C2212      C2213   1.407       .  A
C2212      H2217   1.084       .  S
C2213      C2214   1.416       .  A
C2214      C2215   1.508       .  S
C2215      H2219   1.111       .  S
C2215      H2220   1.110       .  S
C2215      H2221   1.110       .  S
C2218      H2222   1.110       .  S
C2218      H2223   1.110       .  S
C2218      H2224   1.111       .  S
C2225      C2226   1.404       .  A
C2225      C2230   1.406       .  A
C2225      H2232   1.084       .  S
C2226      C2227   1.413       .  A
C2227      C2228   1.388       .  A
C2227      C2234   1.512       .  S
C2228      C2229   1.397       .  A
C2228      H2233   1.085       .  S
C2229      C2230   1.409       .  A
C2230      C2231   1.505       .  S
C2231      H2235   1.111       .  S
C2231      H2236   1.110       .  S
C2231      H2237   1.110       .  S
C2234      H2238   1.111       .  S
C2234      H2239   1.109       .  S
C2234      H2240   1.111       .  S
C2241      C2242   1.421       .  A
C2241      C2246   1.407       .  A
C2241      H2248   1.083       .  S
C2242      C2243   1.410       .  A
C2243      C2244   1.416       .  A
C2243      C2250   1.504       .  S
C2244      C2245   1.417       .  A
C2244      H2249   1.084       .  S
C2245      C2246   1.405       .  A
C2246      C2247   1.507       .  S
C2247      H2251   1.111       .  S
C2247      H2252   1.110       .  S
C2247      H2253   1.111       .  S
C2250      H2254   1.110       .  S
C2250      H2255   1.110       .  S
C2250      H2256   1.111       .  S
C2257      C2258   1.403       .  A
C2257      C2262   1.404       .  A
C2257      H2264   1.084       .  S
C2258      C2259   1.416       .  A
C2259      C2260   1.398       .  A
C2259      C2266   1.508       .  S
C2260      C2261   1.401       .  A
C2260      H2265   1.085       .  S
C2261      C2262   1.417       .  A
C2262      C2263   1.507       .  S
C2263      H2267   1.111       .  S
C2263      H2268   1.110       .  S
C2263      H2269   1.111       .  S
C2266      H2270   1.106       .  S
C2266      H2271   1.110       .  S
C2266      H2272   1.111       .  S
C2273      C2274   1.417       .  A
C2273      C2278   1.414       .  A
C2273      H2280   1.084       .  S
C2274      C2275   1.403       .  A
C2275      C2276   1.406       .  A
C2275      C2282   1.507       .  S
C2276      C2277   1.421       .  A
C2276      H2281   1.083       .  S
C2277      C2278   1.408       .  A
C2278      C2279   1.504       .  S
C2279      H2283   1.111       .  S
C2279      H2284   1.110       .  S
C2279      H2285   1.110       .  S
C2282      H2286   1.110       .  S
C2282      H2287   1.110       .  S
C2282      H2288   1.111       .  S
C2289      C2290   1.398       .  A
C2289      C2294   1.385       .  A
C2289      H2296   1.085       .  S
C2290      C2291   1.409       .  A
C2291      C2292   1.405       .  A
C2291      C2298   1.506       .  S
C2292      C2293   1.405       .  A
C2292      H2297   1.084       .  S
C2293      C2294   1.413       .  A
C2294      C2295   1.513       .  S
C2295      H2299   1.111       .  S
C2295      H2300   1.111       .  S
C2295      H2301   1.109       .  S
C2298      H2302   1.110       .  S
C2298      H2303   1.110       .  S
C2298      H2304   1.111       .  S
C2305      C2306   1.400       .  A
C2305      C2310   1.401       .  A
C2305      H2312   1.084       .  S
C2306      C2307   1.410       .  A
C2307      C2308   1.393       .  A
C2307      C2314   1.509       .  S
C2308      C2309   1.398       .  A
C2308      H2313   1.085       .  S
C2309      C2310   1.407       .  A
C2310      C2311   1.505       .  S
C2311      H2315   1.111       .  S
C2311      H2316   1.111       .  S
C2311      H2317   1.110       .  S
C2314      H2318   1.110       .  S
C2314      H2319   1.110       .  S
C2314      H2320   1.111       .  S
C2321      C2322   1.397       .  A
C2321      C2326   1.389       .  A
C2321      H2328   1.085       .  S
C2322      C2323   1.409       .  A
C2323      C2324   1.407       .  A
C2323      C2330   1.505       .  S
C2324      C2325   1.404       .  A
C2324      H2329   1.084       .  S
C2325      C2326   1.413       .  A
C2326      C2327   1.511       .  S
C2327      H2331   1.111       .  S
C2327      H2332   1.110       .  S
C2327      H2333   1.109       .  S
C2330      H2334   1.110       .  S
C2330      H2335   1.110       .  S
C2330      H2336   1.111       .  S
C2337      C2338   1.406       .  A
C2337      C2342   1.407       .  A
C2337      H2344   1.084       .  S
C2338      C2339   1.417       .  A
C2339      C2340   1.384       .  A
C2339      C2346   1.514       .  S
C2340      C2341   1.398       .  A
C2340      H2345   1.085       .  S
C2341      C2342   1.410       .  A
C2342      C2343   1.505       .  S
C2343      H2347   1.111       .  S
C2343      H2348   1.110       .  S
C2343      H2349   1.110       .  S
C2346      H2350   1.110       .  S
C2346      H2351   1.110       .  S
C2346      H2352   1.111       .  S
C2353      C2354   1.404       .  A
C2353      C2358   1.405       .  A
C2353      H2360   1.084       .  S
C2354      C2355   1.414       .  A
C2355      C2356   1.386       .  A
C2355      C2362   1.513       .  S
C2356      C2357   1.399       .  A
C2356      H2361   1.085       .  S
C2357      C2358   1.409       .  A
C2358      C2359   1.504       .  S
C2359      H2363   1.111       .  S
C2359      H2364   1.108       .  S
C2359      H2365   1.110       .  S
C2362      H2366   1.109       .  S
C2362      H2367   1.110       .  S
C2362      H2368   1.111       .  S
C2369      C2370   1.402       .  A
C2369      C2374   1.399       .  A
C2369      H2376   1.084       .  S
C2370      C2371   1.413       .  A
C2371      C2372   1.398       .  A
C2371      C2378   1.509       .  S
C2372      C2373   1.403       .  A
C2372      H2377   1.084       .  S
C2373      C2374   1.416       .  A
C2374      C2375   1.508       .  S
C2375      H2379   1.111       .  S
C2375      H2380   1.110       .  S
C2375      H2381   1.110       .  S
C2378      H2382   1.109       .  S
C2378      H2383   1.110       .  S
C2378      H2384   1.111       .  S
C2385      C2386   1.398       .  A
C2385      C2390   1.386       .  A
C2385      H2392   1.085       .  S
C2386      C2387   1.408       .  A
C2387      C2388   1.406       .  A
C2387      C2394   1.505       .  S
C2388      C2389   1.405       .  A
C2388      H2393   1.084       .  S
C2389      C2390   1.413       .  A
C2390      C2391   1.510       .  S
C2391      H2395   1.111       .  S
C2391      H2396   1.109       .  S
C2391      H2397   1.108       .  S
C2394      H2398   1.110       .  S
C2394      H2399   1.110       .  S
C2394      H2400   1.111       .  S
C2401      C2402   1.406       .  A
C2401      C2406   1.406       .  A
C2401      H2408   1.084       .  S
C2402      C2403   1.417       .  A
C2403      C2404   1.386       .  A
C2403      C2410   1.514       .  S
C2404      C2405   1.400       .  A
C2404      H2409   1.084       .  S
C2405      C2406   1.412       .  A
C2406      C2407   1.506       .  S
C2407      H2411   1.111       .  S
C2407      H2412   1.109       .  S
C2407      H2413   1.110       .  S
C2410      H2414   1.111       .  S
C2410      H2415   1.109       .  S
C2410      H2416   1.111       .  S
C2417      C2418   1.408       .  A
C2417      C2422   1.407       .  A
C2417      H2424   1.085       .  S
C2418      C2419   1.413       .  A
C2419      C2420   1.415       .  A
C2419      C2426   1.505       .  S
C2420      C2421   1.409       .  A
C2420      H2425   1.084       .  S
C2421      C2422   1.412       .  A
C2422      C2423   1.508       .  S
C2423      H2427   1.110       .  S
C2423      H2428   1.110       .  S
C2423      H2429   1.110       .  S
C2426      H2430   1.110       .  S
C2426      H2431   1.110       .  S
C2426      H2432   1.111       .  S
C2433      C2434   1.401       .  A
C2433      C2438   1.385       .  A
C2433      H2440   1.083       .  S
C2434      C2435   1.413       .  A
C2435      C2436   1.410       .  A
C2435      C2442   1.506   1_545  S
C2436      C2437   1.408       .  A
C2436      H2441   1.084       .  S
C2437      C2438   1.418       .  A
C2438      C2439   1.515       .  S
C2439      H2443   1.111       .  S
C2439      H2444   1.111       .  S
C2439      H2445   1.110       .  S
C2442      H2446   1.109       .  S
C2442      H2447   1.110       .  S
C2442      H2448   1.111       .  S
C2449      C2450   1.405       .  A
C2449      C2454   1.407       .  A
C2449      H2456   1.084       .  S
C2450      C2451   1.414       .  A
C2451      C2452   1.388       .  A
C2451      C2458   1.512       .  S
C2452      C2453   1.398       .  A
C2452      H2457   1.085       .  S
C2453      C2454   1.410       .  A
C2454      C2455   1.505   1_554  S
C2455      H2459   1.111       .  S
C2455      H2460   1.110       .  S
C2455      H2461   1.110       .  S
C2458      H2462   1.109       .  S
C2458      H2463   1.110       .  S
C2458      H2464   1.111       .  S
C2465      C2466   1.411       .  A
C2465      C2470   1.419       .  A
C2465      H2472   1.084       .  S
C2466      C2467   1.413       .  A
C2467      C2468   1.411       .  A
C2467      C2474   1.507       .  S
C2468      C2469   1.409       .  A
C2468      H2473   1.085       .  S
C2469      C2470   1.413       .  A
C2470      C2471   1.504       .  S
C2471      H2475   1.111       .  S
C2471      H2476   1.111       .  S
C2471      H2477   1.110       .  S
C2474      H2478   1.110       .  S
C2474      H2479   1.111       .  S
C2474      H2480   1.110       .  S
C2481      C2482   1.397       .  A
C2481      C2486   1.385       .  A
C2481      H2488   1.085       .  S
C2482      C2483   1.411       .  A
C2483      C2484   1.406       .  A
C2483      C2490   1.505       .  S
C2484      C2485   1.404       .  A
C2484      H2489   1.085   1_554  S
C2485      C2486   1.416       .  A
C2486      C2487   1.512       .  S
C2487      H2491   1.111       .  S
C2487      H2492   1.109       .  S
C2487      H2493   1.109       .  S
C2490      H2494   1.109       .  S
C2490      H2495   1.110       .  S
C2490      H2496   1.111   1_554  S
C2497      C2498   1.403       .  A
C2497      C2502   1.408       .  A
C2497      H2504   1.085       .  S
C2498      C2499   1.416       .  A
C2499      C2500   1.418       .  A
C2499      C2506   1.505       .  S
C2500      C2501   1.408       .  A
C2500      H2505   1.084       .  S
C2501      C2502   1.420       .  A
C2502      C2503   1.509       .  S
C2503      H2507   1.111       .  S
C2503      H2508   1.111       .  S
C2503      H2509   1.109       .  S
C2506      H2510   1.110       .  S
C2506      H2511   1.110       .  S
C2506      H2512   1.111       .  S
C2513      C2514   1.404       .  A
C2513      C2518   1.408       .  A
C2513      H2520   1.084       .  S
C2514      C2515   1.417       .  A
C2515      C2516   1.417       .  A
C2515      C2522   1.505       .  S
C2516      C2517   1.406       .  A
C2516      H2521   1.084       .  S
C2517      C2518   1.417       .  A
C2518      C2519   1.509       .  S
C2519      H2523   1.111       .  S
C2519      H2524   1.110       .  S
C2519      H2525   1.109       .  S
C2522      H2526   1.110       .  S
C2522      H2527   1.110       .  S
C2522      H2528   1.111       .  S
C2529      C2530   1.401       .  A
C2529      C2534   1.387       .  A
C2529      H2536   1.083       .  S
C2530      C2531   1.413       .  A
C2531      C2532   1.409       .  A
C2531      C2538   1.506   1_545  S
C2532      C2533   1.408       .  A
C2532      H2537   1.084       .  S
C2533      C2534   1.418       .  A
C2534      C2535   1.513       .  S
C2535      H2539   1.111       .  S
C2535      H2540   1.110       .  S
C2535      H2541   1.107       .  S
C2538      H2542   1.110       .  S
C2538      H2543   1.110       .  S
C2538      H2544   1.111       .  S
C2545      C2546   1.399       .  A
C2545      C2550   1.388       .  A
C2545      H2552   1.081       .  S
C2546      C2547   1.409       .  A
C2547      C2548   1.406       .  A
C2547      C2554   1.506       .  S
C2548      C2549   1.404       .  A
C2548      H2553   1.071       .  S
C2549      C2550   1.413       .  A
C2550      C2551   1.512       .  S
C2551      H2555   1.111       .  S
C2551      H2556   1.111       .  S
C2551      H2557   1.109       .  S
C2554      H2558   1.110       .  S
C2554      H2559   1.110       .  S
C2554      H2560   1.110       .  S
C2561      C2562   1.400       .  A
C2561      C2566   1.383       .  A
C2561      H2568   1.083       .  S
C2562      C2563   1.414       .  A
C2563      C2564   1.411       .  A
C2563      C2570   1.505       .  S
C2564      C2565   1.408       .  A
C2564      H2569   1.085       .  S
C2565      C2566   1.419       .  A
C2566      C2567   1.515       .  S
C2567      H2571   1.111       .  S
C2567      H2572   1.106       .  S
C2567      H2573   1.111       .  S
C2570      H2574   1.110       .  S
C2570      H2575   1.109       .  S
C2570      H2576   1.111       .  S
C2577      C2578   1.408       .  A
C2577      C2582   1.406       .  A
C2577      H2584   1.084       .  S
C2578      C2579   1.412       .  A
C2579      C2580   1.415       .  A
C2579      C2586   1.505       .  S
C2580      C2581   1.410       .  A
C2580      H2585   1.084       .  S
C2581      C2582   1.411       .  A
C2582      C2583   1.508       .  S
C2583      H2587   1.110       .  S
C2583      H2588   1.111       .  S
C2583      H2589   1.110       .  S
C2586      H2590   1.110       .  S
C2586      H2591   1.110       .  S
C2586      H2592   1.111       .  S
C2593      C2594   1.403       .  A
C2593      C2598   1.394       .  A
C2593      H2600   1.084       .  S
C2594      C2595   1.415       .  A
C2595      C2596   1.410       .  A
C2595      C2602   1.506       .  S
C2596      C2597   1.408       .  A
C2596      H2601   1.083       .  S
C2597      C2598   1.421       .  A
C2598      C2599   1.513       .  S
C2599      H2603   1.111       .  S
C2599      H2604   1.111       .  S
C2599      H2605   1.109       .  S
C2602      H2606   1.109       .  S
C2602      H2607   1.111       .  S
C2602      H2608   1.111       .  S
C2609      C2610   1.411       .  A
C2609      C2614   1.408       .  A
C2609      H2616   1.084       .  S
C2610      C2611   1.412       .  A
C2611      C2612   1.418       .  A
C2611      C2618   1.504       .  S
C2612      C2613   1.413       .  A
C2612      H2617   1.085       .  S
C2613      C2614   1.410       .  A
C2614      C2615   1.508       .  S
C2615      H2619   1.111       .  S
C2615      H2620   1.111       .  S
C2615      H2621   1.110       .  S
C2618      H2622   1.110       .  S
C2618      H2623   1.111       .  S
C2618      H2624   1.111       .  S
C2625      C2626   1.407       .  A
C2625      C2630   1.408       .  A
C2625      H2632   1.085       .  S
C2626      C2627   1.413       .  A
C2627      C2628   1.384       .  A
C2627      C2634   1.513       .  S
C2628      C2629   1.398       .  A
C2628      H2633   1.085       .  S
C2629      C2630   1.408       .  A
C2630      C2631   1.505       .  S
C2631      H2635   1.111       .  S
C2631      H2636   1.110       .  S
C2631      H2637   1.110       .  S
C2634      H2638   1.110       .  S
C2634      H2639   1.109       .  S
C2634      H2640   1.111       .  S
C2641      C2642   1.401       .  A
C2641      C2646   1.399       .  A
C2641      H2648   1.085       .  S
C2642      C2643   1.411       .  A
C2643      C2644   1.400       .  A
C2643      C2650   1.508       .  S
C2644      C2645   1.403       .  A
C2644      H2649   1.084       .  S
C2645      C2646   1.416       .  A
C2646      C2647   1.508       .  S
C2647      H2651   1.111       .  S
C2647      H2652   1.110       .  S
C2647      H2653   1.111       .  S
C2650      H2654   1.111       .  S
C2650      H2655   1.108       .  S
C2650      H2656   1.111       .  S
C2657      C2658   1.406       .  A
C2657      C2662   1.408       .  A
C2657      H2664   1.084       .  S
C2658      C2659   1.414       .  A
C2659      C2660   1.416       .  A
C2659      C2666   1.505       .  S
C2660      C2661   1.409       .  A
C2660      H2665   1.084       .  S
C2661      C2662   1.413       .  A
C2662      C2663   1.507       .  S
C2663      H2667   1.111       .  S
C2663      H2668   1.110       .  S
C2663      H2669   1.110       .  S
C2666      H2670   1.110       .  S
C2666      H2671   1.110       .  S
C2666      H2672   1.111       .  S
C2673      C2674   1.401       .  A
C2673      C2678   1.399       .  A
C2673      H2680   1.084       .  S
C2674      C2675   1.418       .  A
C2675      C2676   1.403       .  A
C2675      C2682   1.508       .  S
C2676      C2677   1.403       .  A
C2676      H2681   1.084       .  S
C2677      C2678   1.416       .  A
C2678      C2679   1.509       .  S
C2679      H2683   1.111       .  S
C2679      H2684   1.108       .  S
C2679      H2685   1.110       .  S
C2682      H2686   1.110       .  S
C2682      H2687   1.110       .  S
C2682      H2688   1.111       .  S
C2689      C2690   1.409       .  A
C2689      C2694   1.416       .  A
C2689      H2696   1.084       .  S
C2690      C2691   1.414       .  A
C2691      C2692   1.408       .  A
C2691      C2698   1.508       .  S
C2692      C2693   1.406       .  A
C2692      H2697   1.085       .  S
C2693      C2694   1.414       .  A
C2694      C2695   1.505       .  S
C2695      H2699   1.111       .  S
C2695      H2700   1.110       .  S
C2695      H2701   1.111       .  S
C2698      H2702   1.110       .  S
C2698      H2703   1.110       .  S
C2698      H2704   1.111       .  S
C2705      C2706   1.401       .  A
C2705      C2710   1.414       .  A
C2705      H2712   1.084       .  S
C2706      C2707   1.429       .  A
C2707      C2708   1.405       .  A
C2707      C2714   1.510       .  S
C2708      C2709   1.393       .  A
C2708      H2713   1.084       .  S
C2709      C2710   1.423       .  A
C2710      C2711   1.507       .  S
C2711      H2715   1.111       .  S
C2711      H2716   1.110       .  S
C2711      H2717   1.109       .  S
C2714      H2718   1.107       .  S
C2714      H2719   1.110       .  S
C2714      H2720   1.111       .  S
C2721      C2722   1.404       .  A
C2721      C2726   1.406       .  A
C2721      H2728   1.083       .  S
C2722      C2723   1.413       .  A
C2723      C2724   1.385       .  A
C2723      C2730   1.509       .  S
C2724      C2725   1.395       .  A
C2724      H2729   1.085       .  S
C2725      C2726   1.409       .  A
C2726      C2727   1.506       .  S
C2727      H2731   1.111       .  S
C2727      H2732   1.110       .  S
C2727      H2733   1.110       .  S
C2730      H2734   1.107       .  S
C2730      H2735   1.109       .  S
C2730      H2736   1.111       .  S
C2737      C2738   1.406       .  A
C2737      C2742   1.408       .  A
C2737      H2744   1.084       .  S
C2738      C2739   1.416       .  A
C2739      C2740   1.383       .  A
C2739      C2746   1.512       .  S
C2740      C2741   1.396       .  A
C2740      H2745   1.085       .  S
C2741      C2742   1.411       .  A
C2742      C2743   1.506       .  S
C2743      H2747   1.111       .  S
C2743      H2748   1.110       .  S
C2743      H2749   1.110       .  S
C2746      H2750   1.108       .  S
C2746      H2751   1.109       .  S
C2746      H2752   1.111       .  S
C2753      C2754   1.397       .  A
C2753      C2758   1.388       .  A
C2753      H2760   1.085       .  S
C2754      C2755   1.408       .  A
C2755      C2756   1.404       .  A
C2755      C2762   1.504       .  S
C2756      C2757   1.402       .  A
C2756      H2761   1.084       .  S
C2757      C2758   1.411       .  A
C2758      C2759   1.512       .  S
C2759      H2763   1.111       .  S
C2759      H2764   1.110       .  S
C2759      H2765   1.109       .  S
C2762      H2766   1.110       .  S
C2762      H2767   1.110       .  S
C2762      H2768   1.111       .  S
C2769      C2770   1.397       .  A
C2769      C2774   1.393       .  A
C2769      H2776   1.086       .  S
C2770      C2771   1.408       .  A
C2771      C2772   1.403       .  A
C2771      C2778   1.505       .  S
C2772      C2773   1.400       .  A
C2772      H2777   1.084       .  S
C2773      C2774   1.410       .  A
C2774      C2775   1.506       .  S
C2775      H2779   1.111       .  S
C2775      H2780   1.109       .  S
C2775      H2781   1.109       .  S
C2778      H2782   1.110       .  S
C2778      H2783   1.111       .  S
C2778      H2784   1.111       .  S
C2785      C2786   1.402       .  A
C2785      C2790   1.405       .  A
C2785      H2792   1.084       .  S
C2786      C2787   1.414       .  A
C2787      C2788   1.386       .  A
C2787      C2794   1.513       .  S
C2788      C2789   1.396       .  A
C2788      H2793   1.085       .  S
C2789      C2790   1.410       .  A
C2790      C2791   1.504       .  S
C2791      H2795   1.111       .  S
C2791      H2796   1.110       .  S
C2791      H2797   1.110       .  S
C2794      H2798   1.110       .  S
C2794      H2799   1.109       .  S
C2794      H2800   1.111       .  S
C2801      C2802   1.408       .  A
C2801      C2806   1.409       .  A
C2801      H2808   1.084       .  S
C2802      C2803   1.414       .  A
C2803      C2804   1.418       .  A
C2803      C2810   1.504       .  S
C2804      C2805   1.411       .  A
C2804      H2809   1.084       .  S
C2805      C2806   1.412       .  A
C2806      C2807   1.507       .  S
C2807      H2811   1.110       .  S
C2807      H2812   1.110       .  S
C2807      H2813   1.110       .  S
C2810      H2814   1.110       .  S
C2810      H2815   1.110       .  S
C2810      H2816   1.111       .  S
C2817      C2818   1.416       .  A
C2817      C2822   1.405       .  A
C2817      H2824   1.084       .  S
C2818      C2819   1.409       .  A
C2819      C2820   1.415       .  A
C2819      C2826   1.504       .  S
C2820      C2821   1.415       .  A
C2820      H2825   1.084       .  S
C2821      C2822   1.406       .  A
C2822      C2823   1.507       .  S
C2823      H2827   1.111       .  S
C2823      H2828   1.111       .  S
C2823      H2829   1.110       .  S
C2826      H2830   1.110       .  S
C2826      H2831   1.111       .  S
C2826      H2832   1.111       .  S
C2833      C2834   1.396       .  A
C2833      C2838   1.392       .  A
C2833      H2840   1.085       .  S
C2834      C2835   1.408       .  A
C2835      C2836   1.402       .  A
C2835      C2842   1.505       .  S
C2836      C2837   1.400       .  A
C2836      H2841   1.084   1_554  S
C2837      C2838   1.411       .  A
C2838      C2839   1.509       .  S
C2839      H2843   1.111       .  S
C2839      H2844   1.110       .  S
C2839      H2845   1.109   1_554  S
C2842      H2846   1.110       .  S
C2842      H2847   1.110       .  S
C2842      H2848   1.111       .  S
C2849      C2850   1.403       .  A
C2849      C2854   1.399   1_455  A
C2849      H2856   1.085       .  S
C2850      C2851   1.411       .  A
C2851      C2852   1.398       .  A
C2851      C2858   1.509       .  S
C2852      C2853   1.403   1_455  A
C2852      H2857   1.084       .  S
C2853      C2854   1.414       .  A
C2854      C2855   1.508       .  S
C2855      H2859   1.111       .  S
C2855      H2860   1.110       .  S
C2855      H2861   1.111       .  S
C2858      H2862   1.110       .  S
C2858      H2863   1.108       .  S
C2858      H2864   1.111       .  S
C2865      C2866   1.418       .  A
C2865      C2870   1.408       .  A
C2865      H2872   1.084       .  S
C2866      C2867   1.409       .  A
C2867      C2868   1.416       .  A
C2867      C2874   1.504       .  S
C2868      C2869   1.417       .  A
C2868      H2873   1.084       .  S
C2869      C2870   1.406       .  A
C2870      C2871   1.507       .  S
C2871      H2875   1.111       .  S
C2871      H2876   1.110       .  S
C2871      H2877   1.111       .  S
C2874      H2878   1.111       .  S
C2874      H2879   1.110       .  S
C2874      H2880   1.111       .  S
C2881      C2882   1.409       .  A
C2881      C2886   1.411       .  A
C2881      H2888   1.084       .  S
C2882      C2883   1.419       .  A
C2883      C2884   1.384       .  A
C2883      C2890   1.506       .  S
C2884      C2885   1.398       .  A
C2884      H2889   1.084       .  S
C2885      C2886   1.415       .  A
C2886      C2887   1.505       .  S
C2887      H2891   1.111       .  S
C2887      H2892   1.111       .  S
C2887      H2893   1.109       .  S
C2890      H2894   1.095       .  S
C2890      H2895   1.112       .  S
C2890      H2896   1.111       .  S
C2897      C2898   1.407       .  A
C2897      C2902   1.417       .  A
C2897      H2904   1.084       .  S
C2898      C2899   1.418       .  A
C2899      C2900   1.410       .  A
C2899      C2906   1.508       .  S
C2900      C2901   1.403       .  A
C2900      H2905   1.084       .  S
C2901      C2902   1.417       .  A
C2902      C2903   1.505       .  S
C2903      H2907   1.111       .  S
C2903      H2908   1.110       .  S
C2903      H2909   1.110       .  S
C2906      H2910   1.110       .  S
C2906      H2911   1.110       .  S
C2906      H2912   1.111       .  S
C2913      C2914   1.407       .  A
C2913      C2918   1.407   1_455  A
C2913      H2920   1.084       .  S
C2914      C2915   1.419       .  A
C2915      C2916   1.391       .  A
C2915      C2922   1.513       .  S
C2916      C2917   1.402   1_455  A
C2916      H2921   1.084       .  S
C2917      C2918   1.415       .  A
C2918      C2919   1.506       .  S
C2919      H2923   1.111       .  S
C2919      H2924   1.111       .  S
C2919      H2925   1.109       .  S
C2922      H2926   1.109       .  S
C2922      H2927   1.111       .  S
C2922      H2928   1.111       .  S
C2929      C2930   1.418       .  A
C2929      C2934   1.409       .  A
C2929      H2936   1.084       .  S
C2930      C2931   1.410       .  A
C2931      C2932   1.414       .  A
C2931      C2938   1.504       .  S
C2932      C2933   1.415       .  A
C2932      H2937   1.084       .  S
C2933      C2934   1.407       .  A
C2934      C2935   1.507       .  S
C2935      H2939   1.111       .  S
C2935      H2940   1.111       .  S
C2935      H2941   1.110       .  S
C2938      H2942   1.110       .  S
C2938      H2943   1.110       .  S
C2938      H2944   1.111       .  S
C2945      C2946   1.409       .  A
C2945      C2950   1.411       .  A
C2945      H2952   1.084       .  S
C2946      C2947   1.420       .  A
C2947      C2948   1.382       .  A
C2947      C2954   1.516       .  S
C2948      C2949   1.399       .  A
C2948      H2953   1.083       .  S
C2949      C2950   1.411       .  A
C2950      C2951   1.505       .  S
C2951      H2955   1.111       .  S
C2951      H2956   1.111       .  S
C2951      H2957   1.109       .  S
C2954      H2958   1.110       .  S
C2954      H2959   1.111       .  S
C2954      H2960   1.111       .  S
C2961      C2962   1.407       .  A
C2961      C2966   1.416       .  A
C2961      H2968   1.084       .  S
C2962      C2963   1.416       .  A
C2963      C2964   1.408       .  A
C2963      C2970   1.508       .  S
C2964      C2965   1.404       .  A
C2964      H2969   1.084       .  S
C2965      C2966   1.415       .  A
C2966      C2967   1.505       .  S
C2967      H2971   1.111       .  S
C2967      H2972   1.111       .  S
C2967      H2973   1.110       .  S
C2970      H2974   1.110       .  S
C2970      H2975   1.110       .  S
C2970      H2976   1.111       .  S
C2977      C2978   1.401       .  A
C2977      C2982   1.399       .  A
C2977      H2984   1.085       .  S
C2978      C2979   1.410       .  A
C2979      C2980   1.400       .  A
C2979      C2986   1.507       .  S
C2980      C2981   1.401       .  A
C2980      H2985   1.084       .  S
C2981      C2982   1.413       .  A
C2982      C2983   1.508       .  S
C2983      H2987   1.111       .  S
C2983      H2988   1.109       .  S
C2983      H2989   1.111       .  S
C2986      H2990   1.111   1_554  S
C2986      H2991   1.109       .  S
C2986      H2992   1.111       .  S
C2993      C2994   1.407       .  A
C2993      C2998   1.408       .  A
C2993      H3000   1.083       .  S
C2994      C2995   1.420       .  A
C2995      C2996   1.385       .  A
C2995      C3002   1.513       .  S
C2996      C2997   1.400       .  A
C2996      H3001   1.083       .  S
C2997      C2998   1.413       .  A
C2998      C2999   1.506       .  S
C2999      H3003   1.111       .  S
C2999      H3004   1.111       .  S
C2999      H3005   1.109       .  S
C3002      H3006   1.108       .  S
C3002      H3007   1.111       .  S
C3002      H3008   1.111       .  S
C3009      C3010   1.401       .  A
C3009      C3014   1.401       .  A
C3009      H3016   1.084       .  S
C3010      C3011   1.414       .  A
C3011      C3012   1.397       .  A
C3011      C3018   1.509       .  S
C3012      C3013   1.400       .  A
C3012      H3017   1.085   1_545  S
C3013      C3014   1.411       .  A
C3014      C3015   1.507       .  S
C3015      H3019   1.111       .  S
C3015      H3020   1.109       .  S
C3015      H3021   1.111   1_545  S
C3018      H3022   1.111       .  S
C3018      H3023   1.109       .  S
C3018      H3024   1.111       .  S
C3025      C3026   1.399       .  A
C3025      C3030   1.396       .  A
C3025      H3032   1.085       .  S
C3026      C3027   1.410       .  A
C3027      C3028   1.401       .  A
C3027      C3034   1.506       .  S
C3028      C3029   1.400       .  A
C3028      H3033   1.084       .  S
C3029      C3030   1.413       .  A
C3030      C3031   1.510       .  S
C3031      H3035   1.111       .  S
C3031      H3036   1.109       .  S
C3031      H3037   1.111       .  S
C3034      H3038   1.111       .  S
C3034      H3039   1.109       .  S
C3034      H3040   1.111       .  S
C3041      C3042   1.396       .  A
C3041      C3046   1.383       .  A
C3041      H3048   1.085       .  S
C3042      C3043   1.410       .  A
C3043      C3044   1.406   1_455  A
C3043      C3050   1.505       .  S
C3044      C3045   1.403       .  A
C3044      H3049   1.084       .  S
C3045      C3046   1.415   1_655  A
C3046      C3047   1.514       .  S
C3047      H3051   1.111       .  S
C3047      H3052   1.109       .  S
C3047      H3053   1.110       .  S
C3050      H3054   1.110       .  S
C3050      H3055   1.109       .  S
C3050      H3056   1.111   1_455  S
C3057      C3058   1.395       .  A
C3057      C3062   1.384       .  A
C3057      H3064   1.085       .  S
C3058      C3059   1.406       .  A
C3059      C3060   1.403       .  A
C3059      C3066   1.504       .  S
C3060      C3061   1.402       .  A
C3060      H3065   1.084       .  S
C3061      C3062   1.411       .  A
C3062      C3063   1.512       .  S
C3063      H3067   1.111       .  S
C3063      H3068   1.109       .  S
C3063      H3069   1.110       .  S
C3066      H3070   1.110       .  S
C3066      H3071   1.111       .  S
C3066      H3072   1.111       .  S
C3073      C3074   1.399       .  A
C3073      C3078   1.387       .  A
C3073      H3080   1.084       .  S
C3074      C3075   1.412       .  A
C3075      C3076   1.408       .  A
C3075      C3082   1.505       .  S
C3076      C3077   1.405       .  A
C3076      H3081   1.084       .  S
C3077      C3078   1.416       .  A
C3078      C3079   1.513       .  S
C3079      H3083   1.111       .  S
C3079      H3084   1.110       .  S
C3079      H3085   1.109       .  S
C3082      H3086   1.110       .  S
C3082      H3087   1.110       .  S
C3082      H3088   1.111       .  S
C3089      C3090   1.406       .  A
C3089      C3094   1.402       .  A
C3089      H3096   1.084       .  S
C3090      C3091   1.413       .  A
C3091      C3092   1.397       .  A
C3091      C3098   1.510       .  S
C3092      C3093   1.405       .  A
C3092      H3097   1.084       .  S
C3093      C3094   1.414       .  A
C3094      C3095   1.507       .  S
C3095      H3099   1.111       .  S
C3095      H3100   1.110       .  S
C3095      H3101   1.110       .  S
C3098      H3102   1.110       .  S
C3098      H3103   1.109       .  S
C3098      H3104   1.111       .  S
C3105      C3106   1.404       .  A
C3105      C3110   1.399       .  A
C3105      H3112   1.084       .  S
C3106      C3107   1.417       .  A
C3107      C3108   1.402       .  A
C3107      C3114   1.508       .  S
C3108      C3109   1.403       .  A
C3108      H3113   1.084       .  S
C3109      C3110   1.413       .  A
C3110      C3111   1.509       .  S
C3111      H3115   1.111       .  S
C3111      H3116   1.108       .  S
C3111      H3117   1.111       .  S
C3114      H3118   1.110       .  S
C3114      H3119   1.110       .  S
C3114      H3120   1.111       .  S
C3121      C3122   1.401       .  A
C3121      C3126   1.388       .  A
C3121      H3128   1.083       .  S
C3122      C3123   1.415       .  A
C3123      C3124   1.407       .  A
C3123      C3130   1.507       .  S
C3124      C3125   1.406       .  A
C3124      H3129   1.084       .  S
C3125      C3126   1.421       .  A
C3126      C3127   1.514       .  S
C3127      H3131   1.111       .  S
C3127      H3132   1.111       .  S
C3127      H3133   1.109       .  S
C3130      H3134   1.109       .  S
C3130      H3135   1.111       .  S
C3130      H3136   1.111       .  S
C3137      C3138   1.404       .  A
C3137      C3142   1.404       .  A
C3137      H3144   1.082   1_554  S
C3138      C3139   1.413       .  A
C3139      C3140   1.385       .  A
C3139      C3146   1.513       .  S
C3140      C3141   1.399       .  A
C3140      H3145   1.085       .  S
C3141      C3142   1.408       .  A
C3142      C3143   1.505       .  S
C3143      H3147   1.111   1_554  S
C3143      H3148   1.110       .  S
C3143      H3149   1.110       .  S
C3146      H3150   1.111       .  S
C3146      H3151   1.109       .  S
C3146      H3152   1.111       .  S
C3153      C3154   1.407       .  A
C3153      C3158   1.405   1_565  A
C3153      H3160   1.083       .  S
C3154      C3155   1.416   1_565  A
C3155      C3156   1.396       .  A
C3155      C3162   1.511       .  S
C3156      C3157   1.404       .  A
C3156      H3161   1.083       .  S
C3157      C3158   1.414       .  A
C3158      C3159   1.506       .  S
C3159      H3163   1.111   1_545  S
C3159      H3164   1.111       .  S
C3159      H3165   1.109       .  S
C3162      H3166   1.110       .  S
C3162      H3167   1.110       .  S
C3162      H3168   1.111       .  S
C3169      C3170   1.403       .  A
C3169      C3174   1.408       .  A
C3169      H3176   1.084       .  S
C3170      C3171   1.415       .  A
C3171      C3172   1.414       .  A
C3171      C3178   1.506       .  S
C3172      C3173   1.406       .  A
C3172      H3177   1.084       .  S
C3173      C3174   1.416       .  A
C3174      C3175   1.508       .  S
C3175      H3179   1.111       .  S
C3175      H3180   1.110       .  S
C3175      H3181   1.110       .  S
C3178      H3182   1.110       .  S
C3178      H3183   1.110       .  S
C3178      H3184   1.111       .  S
C3185      C3186   1.399       .  A
C3185      C3190   1.410       .  A
C3185      H3192   1.084       .  S
C3186      C3187   1.421       .  A
C3187      C3188   1.417       .  A
C3187      C3194   1.506       .  S
C3188      C3189   1.403       .  A
C3188      H3193   1.084       .  S
C3189      C3190   1.424       .  A
C3190      C3191   1.509       .  S
C3191      H3195   1.111       .  S
C3191      H3196   1.107       .  S
C3191      H3197   1.110       .  S
C3194      H3198   1.110       .  S
C3194      H3199   1.110       .  S
C3194      H3200   1.111       .  S
C3201      C3202   1.407       .  A
C3201      C3206   1.406       .  A
C3201      H3208   1.084       .  S
C3202      C3203   1.414       .  A
C3203      C3204   1.383       .  A
C3203      C3210   1.513       .  S
C3204      C3205   1.399       .  A
C3204      H3209   1.085       .  S
C3205      C3206   1.407       .  A
C3206      C3207   1.504       .  S
C3207      H3211   1.111       .  S
C3207      H3212   1.110       .  S
C3207      H3213   1.110       .  S
C3210      H3214   1.110       .  S
C3210      H3215   1.109       .  S
C3210      H3216   1.111       .  S
C3217      C3218   1.402       .  A
C3217      C3222   1.400       .  A
C3217      H3224   1.085       .  S
C3218      C3219   1.416       .  A
C3219      C3220   1.403       .  A
C3219      C3226   1.507       .  S
C3220      C3221   1.402       .  A
C3220      H3225   1.084       .  S
C3221      C3222   1.413       .  A
C3222      C3223   1.509       .  S
C3223      H3227   1.111       .  S
C3223      H3228   1.111       .  S
C3223      H3229   1.108       .  S
C3226      H3230   1.110       .  S
C3226      H3231   1.110       .  S
C3226      H3232   1.111       .  S
C3233      C3234   1.400   1_455  A
C3233      C3238   1.398       .  A
C3233      H3240   1.084       .  S
C3234      C3235   1.417       .  A
C3235      C3236   1.396   1_655  A
C3235      C3242   1.509       .  S
C3236      C3237   1.399       .  A
C3236      H3241   1.085       .  S
C3237      C3238   1.412       .  A
C3238      C3239   1.508       .  S
C3239      H3243   1.111       .  S
C3239      H3244   1.108       .  S
C3239      H3245   1.111       .  S
C3242      H3246   1.111       .  S
C3242      H3247   1.110       .  S
C3242      H3248   1.111       .  S
C3249      C3250   1.398       .  A
C3249      C3254   1.389       .  A
C3249      H3256   1.085       .  S
C3250      C3251   1.407       .  A
C3251      C3252   1.404       .  A
C3251      C3258   1.505       .  S
C3252      C3253   1.403       .  A
C3252      H3257   1.084       .  S
C3253      C3254   1.410       .  A
C3254      C3255   1.511       .  S
C3255      H3259   1.111       .  S
C3255      H3260   1.109       .  S
C3255      H3261   1.110       .  S
C3258      H3262   1.110       .  S
C3258      H3263   1.110       .  S
C3258      H3264   1.111       .  S
C3265      C3266   1.399       .  A
C3265      C3270   1.400       .  A
C3265      H3272   1.084       .  S
C3266      C3267   1.409       .  A
C3267      C3268   1.390       .  A
C3267      C3274   1.509       .  S
C3268      C3269   1.397       .  A
C3268      H3273   1.085       .  S
C3269      C3270   1.410       .  A
C3270      C3271   1.505   1_554  S
C3271      H3275   1.110       .  S
C3271      H3276   1.110       .  S
C3271      H3277   1.108       .  S
C3274      H3278   1.109       .  S
C3274      H3279   1.109       .  S
C3274      H3280   1.111       .  S
C3281      C3282   1.402       .  A
C3281      C3286   1.393       .  A
C3281      H3288   1.084       .  S
C3282      C3283   1.416       .  A
C3283      C3284   1.406       .  A
C3283      C3290   1.507       .  S
C3284      C3285   1.406       .  A
C3284      H3289   1.083       .  S
C3285      C3286   1.421       .  A
C3286      C3287   1.513       .  S
C3287      H3291   1.111       .  S
C3287      H3292   1.110       .  S
C3287      H3293   1.110       .  S
C3290      H3294   1.109       .  S
C3290      H3295   1.111       .  S
C3290      H3296   1.111       .  S
C3297      C3298   1.401       .  A
C3297      C3302   1.401       .  A
C3297      H3304   1.084       .  S
C3298      C3299   1.413       .  A
C3299      C3300   1.394       .  A
C3299      C3306   1.509       .  S
C3300      C3301   1.398   1_455  A
C3300      H3305   1.085   1_455  S
C3301      C3302   1.408   1_655  A
C3302      C3303   1.506   1_455  S
C3303      H3307   1.111   1_655  S
C3303      H3308   1.109       .  S
C3303      H3309   1.111       .  S
C3306      H3310   1.110       .  S
C3306      H3311   1.109       .  S
C3306      H3312   1.111       .  S
C3313      C3314   1.404       .  A
C3313      C3318   1.408       .  A
C3313      H3320   1.084       .  S
C3314      C3315   1.416       .  A
C3315      C3316   1.416       .  A
C3315      C3322   1.505       .  S
C3316      C3317   1.406       .  A
C3316      H3321   1.084       .  S
C3317      C3318   1.417       .  A
C3318      C3319   1.508       .  S
C3319      H3323   1.111       .  S
C3319      H3324   1.110       .  S
C3319      H3325   1.110       .  S
C3322      H3326   1.111       .  S
C3322      H3327   1.110       .  S
C3322      H3328   1.111       .  S
C3329      C3330   1.392       .  A
C3329      C3334   1.407       .  A
C3329      H3336   1.084       .  S
C3330      C3331   1.424       .  A
C3331      C3332   1.416       .  A
C3331      C3338   1.507       .  S
C3332      C3333   1.401       .  A
C3332      H3337   1.084       .  S
C3333      C3334   1.431       .  A
C3334      C3335   1.509       .  S
C3335      H3339   1.110       .  S
C3335      H3340   1.108       .  S
C3335      H3341   1.110       .  S
C3338      H3342   1.110       .  S
C3338      H3343   1.109       .  S
C3338      H3344   1.111       .  S
C3345      C3346   1.397       .  A
C3345      C3350   1.389       .  A
C3345      H3352   1.085       .  S
C3346      C3347   1.408       .  A
C3347      C3348   1.405       .  A
C3347      C3354   1.505       .  S
C3348      C3349   1.403       .  A
C3348      H3353   1.084       .  S
C3349      C3350   1.410       .  A
C3350      C3351   1.511       .  S
C3351      H3355   1.111       .  S
C3351      H3356   1.111       .  S
C3351      H3357   1.109       .  S
C3354      H3358   1.111       .  S
C3354      H3359   1.110       .  S
C3354      H3360   1.111       .  S
C3361      C3362   1.399       .  A
C3361      C3366   1.389       .  A
C3361      H3368   1.084       .  S
C3362      C3363   1.416       .  A
C3363      C3364   1.407       .  A
C3363      C3370   1.506       .  S
C3364      C3365   1.405       .  A
C3364      H3369   1.084       .  S
C3365      C3366   1.424       .  A
C3366      C3367   1.514       .  S
C3367      H3371   1.111       .  S
C3367      H3372   1.108       .  S
C3367      H3373   1.111       .  S
C3370      H3374   1.111       .  S
C3370      H3375   1.109       .  S
C3370      H3376   1.111       .  S
C3377      C3378   1.398       .  A
C3377      C3382   1.387       .  A
C3377      H3384   1.085       .  S
C3378      C3379   1.409       .  A
C3379      C3380   1.406       .  A
C3379      C3386   1.505       .  S
C3380      C3381   1.404       .  A
C3380      H3385   1.084       .  S
C3381      C3382   1.413       .  A
C3382      C3383   1.512       .  S
C3383      H3387   1.111       .  S
C3383      H3388   1.109       .  S
C3383      H3389   1.110       .  S
C3386      H3390   1.110       .  S
C3386      H3391   1.110       .  S
C3386      H3392   1.111       .  S
C3393      C3394   1.402   1_545  A
C3393      C3398   1.399       .  A
C3393      H3400   1.084       .  S
C3394      C3395   1.414   1_565  A
C3395      C3396   1.398       .  A
C3395      C3402   1.509   1_545  S
C3396      C3397   1.401       .  A
C3396      H3401   1.085       .  S
C3397      C3398   1.410       .  A
C3398      C3399   1.508       .  S
C3399      H3403   1.111       .  S
C3399      H3404   1.111       .  S
C3399      H3405   1.108       .  S
C3402      H3406   1.109       .  S
C3402      H3407   1.111       .  S
C3402      H3408   1.111       .  S
C3409      C3410   1.402       .  A
C3409      C3414   1.415       .  A
C3409      H3416   1.084       .  S
C3410      C3411   1.433       .  A
C3411      C3412   1.407       .  A
C3411      C3418   1.510       .  S
C3412      C3413   1.393       .  A
C3412      H3417   1.084       .  S
C3413      C3414   1.425       .  A
C3414      C3415   1.508       .  S
C3415      H3419   1.111       .  S
C3415      H3420   1.109       .  S
C3415      H3421   1.110       .  S
C3418      H3422   1.110       .  S
C3418      H3423   1.108       .  S
C3418      H3424   1.111       .  S
C3425      C3426   1.409       .  A
C3425      C3430   1.410       .  A
C3425      H3432   1.084       .  S
C3426      C3427   1.413       .  A
C3427      C3428   1.418       .  A
C3427      C3434   1.504       .  S
C3428      C3429   1.411       .  A
C3428      H3433   1.084       .  S
C3429      C3430   1.412       .  A
C3430      C3431   1.507       .  S
C3431      H3435   1.110       .  S
C3431      H3436   1.110       .  S
C3431      H3437   1.110       .  S
C3434      H3438   1.110       .  S
C3434      H3439   1.110       .  S
C3434      H3440   1.111       .  S
C3441      C3442   1.399       .  A
C3441      C3446   1.398       .  A
C3441      H3448   1.085       .  S
C3442      C3443   1.416       .  A
C3443      C3444   1.398       .  A
C3443      C3450   1.508       .  S
C3444      C3445   1.400       .  A
C3444      H3449   1.084       .  S
C3445      C3446   1.409       .  A
C3446      C3447   1.498       .  S
C3447      H3451   1.112       .  S
C3447      H3452   1.093       .  S
C3447      H3453   1.110       .  S
C3450      H3454   1.110       .  S
C3450      H3455   1.109       .  S
C3450      H3456   1.111       .  S
C3457      C3458   1.403       .  A
C3457      C3462   1.407       .  A
C3457      H3464   1.084       .  S
C3458      C3459   1.415       .  A
C3459      C3460   1.386       .  A
C3459      C3466   1.513       .  S
C3460      C3461   1.397       .  A
C3460      H3465   1.085       .  S
C3461      C3462   1.410       .  A
C3462      C3463   1.504       .  S
C3463      H3467   1.111       .  S
C3463      H3468   1.110       .  S
C3463      H3469   1.110       .  S
C3466      H3470   1.109       .  S
C3466      H3471   1.110       .  S
C3466      H3472   1.111       .  S
C3473      C3474   1.402   1_455  A
C3473      C3478   1.386       .  A
C3473      H3480   1.083       .  S
C3474      C3475   1.414       .  A
C3475      C3476   1.410   1_655  A
C3475      C3482   1.506       .  S
C3476      C3477   1.410       .  A
C3476      H3481   1.084       .  S
C3477      C3478   1.419       .  A
C3478      C3479   1.512       .  S
C3479      H3483   1.111       .  S
C3479      H3484   1.110       .  S
C3479      H3485   1.102       .  S
C3482      H3486   1.109       .  S
C3482      H3487   1.111       .  S
C3482      H3488   1.111       .  S
C3489      C3490   1.401       .  A
C3489      C3494   1.402       .  A
C3489      H3496   1.084       .  S
C3490      C3491   1.412       .  A
C3491      C3492   1.399       .  A
C3491      C3498   1.505       .  S
C3492      C3493   1.401   1_545  A
C3492      H3497   1.085       .  S
C3493      C3494   1.418   1_565  A
C3494      C3495   1.508   1_545  S
C3495      H3499   1.111       .  S
C3495      H3500   1.110       .  S
C3495      H3501   1.110       .  S
C3498      H3502   1.110       .  S
C3498      H3503   1.102       .  S
C3498      H3504   1.111       .  S
C3505      C3506   1.393       .  A
C3505      C3510   1.412       .  A
C3505      H3512   1.084       .  S
C3506      C3507   1.436       .  A
C3507      C3508   1.417       .  A
C3507      C3514   1.509       .  S
C3508      C3509   1.398       .  A
C3508      H3513   1.084       .  S
C3509      C3510   1.441       .  A
C3510      C3511   1.511       .  S
C3511      H3515   1.111       .  S
C3511      H3516   1.111       .  S
C3511      H3517   1.109       .  S
C3514      H3518   1.110       .  S
C3514      H3519   1.107       .  S
C3514      H3520   1.111       .  S
C3521      C3522   1.423       .  A
C3521      C3526   1.413       .  A
C3521      H3528   1.083       .  S
C3522      C3523   1.409       .  A
C3523      C3524   1.415       .  A
C3523      C3530   1.505       .  S
C3524      C3525   1.420       .  A
C3524      H3529   1.083       .  S
C3525      C3526   1.407       .  A
C3526      C3527   1.506       .  S
C3527      H3531   1.111       .  S
C3527      H3532   1.110       .  S
C3527      H3533   1.110       .  S
C3530      H3534   1.110       .  S
C3530      H3535   1.110       .  S
C3530      H3536   1.111       .  S
C3537      C3538   1.402       .  A
C3537      C3542   1.409   1_655  A
C3537      H3544   1.084       .  S
C3538      C3539   1.418       .  A
C3539      C3540   1.418   1_655  A
C3539      C3546   1.505       .  S
C3540      C3541   1.406       .  A
C3540      H3545   1.084       .  S
C3541      C3542   1.419       .  A
C3542      C3543   1.509       .  S
C3543      H3547   1.111       .  S
C3543      H3548   1.110       .  S
C3543      H3549   1.109       .  S
C3546      H3550   1.110       .  S
C3546      H3551   1.110       .  S
C3546      H3552   1.111       .  S
C3553      C3554   1.408       .  A
C3553      C3558   1.418   1_565  A
C3553      H3560   1.084       .  S
C3554      C3555   1.417       .  A
C3555      C3556   1.410   1_565  A
C3555      C3562   1.508       .  S
C3556      C3557   1.405       .  A
C3556      H3561   1.084       .  S
C3557      C3558   1.417       .  A
C3558      C3559   1.505       .  S
C3559      H3563   1.111       .  S
C3559      H3564   1.110       .  S
C3559      H3565   1.111       .  S
C3562      H3566   1.110       .  S
C3562      H3567   1.110       .  S
C3562      H3568   1.111       .  S
C3569      C3570   1.407       .  A
C3569      C3574   1.416       .  A
C3569      H3576   1.084       .  S
C3570      C3571   1.414       .  A
C3571      C3572   1.409       .  A
C3571      C3578   1.508       .  S
C3572      C3573   1.405       .  A
C3572      H3577   1.084       .  S
C3573      C3574   1.415       .  A
C3574      C3575   1.505       .  S
C3575      H3579   1.111       .  S
C3575      H3580   1.111       .  S
C3575      H3581   1.110       .  S
C3578      H3582   1.110       .  S
C3578      H3583   1.110       .  S
C3578      H3584   1.111       .  S
C3585      C3586   1.396       .  A
C3585      C3590   1.411       .  A
C3585      H3592   1.084       .  S
C3586      C3587   1.437       .  A
C3587      C3588   1.410       .  A
C3587      C3594   1.510       .  S
C3588      C3589   1.394       .  A
C3588      H3593   1.084       .  S
C3589      C3590   1.435       .  A
C3590      C3591   1.510       .  S
C3591      H3595   1.111       .  S
C3591      H3596   1.111       .  S
C3591      H3597   1.108       .  S
C3594      H3598   1.110       .  S
C3594      H3599   1.106       .  S
C3594      H3600   1.111       .  S
C3601      C3602   1.398       .  A
C3601      C3606   1.416   1_655  A
C3601      H3608   1.084       .  S
C3602      C3603   1.444       .  A
C3603      C3604   1.410   1_655  A
C3603      C3610   1.512       .  S
C3604      C3605   1.390       .  A
C3604      H3609   1.084       .  S
C3605      C3606   1.434       .  A
C3606      C3607   1.509       .  S
C3607      H3611   1.111   1_455  S
C3607      H3612   1.111       .  S
C3607      H3613   1.108       .  S
C3610      H3614   1.110       .  S
C3610      H3615   1.109       .  S
C3610      H3616   1.111   1_655  S
C3617      C3618   1.420       .  A
C3617      C3622   1.412       .  A
C3617      H3624   1.084       .  S
C3618      C3619   1.403       .  A
C3619      C3620   1.408       .  A
C3619      C3626   1.506       .  S
C3620      C3621   1.423       .  A
C3620      H3625   1.082       .  S
C3621      C3622   1.408       .  A
C3622      C3623   1.505       .  S
C3623      H3627   1.111       .  S
C3623      H3628   1.110       .  S
C3623      H3629   1.110       .  S
C3626      H3630   1.110       .  S
C3626      H3631   1.110       .  S
C3626      H3632   1.111       .  S
C3633      C3634   1.402   1_565  A
C3633      C3638   1.400       .  A
C3633      H3640   1.084   1_565  S
C3634      C3635   1.417       .  A
C3635      C3636   1.401   1_545  A
C3635      C3642   1.508       .  S
C3636      C3637   1.401       .  A
C3636      H3641   1.085       .  S
C3637      C3638   1.412       .  A
C3638      C3639   1.508       .  S
C3639      H3643   1.111       .  S
C3639      H3644   1.108       .  S
C3639      H3645   1.111       .  S
C3642      H3646   1.110       .  S
C3642      H3647   1.110       .  S
C3642      H3648   1.111       .  S
C3649      C3650   1.415       .  A
C3649      C3654   1.410       .  A
C3649      H3656   1.084       .  S
C3650      C3651   1.410       .  A
C3651      C3652   1.415       .  A
C3651      C3658   1.504       .  S
C3652      C3653   1.414       .  A
C3652      H3657   1.084       .  S
C3653      C3654   1.408       .  A
C3654      C3655   1.506       .  S
C3655      H3659   1.111       .  S
C3655      H3660   1.111       .  S
C3655      H3661   1.110       .  S
C3658      H3662   1.110       .  S
C3658      H3663   1.111       .  S
C3658      H3664   1.111       .  S
C3665      C3666   1.421       .  A
C3665      C3670   1.411       .  A
C3665      H3672   1.083       .  S
C3666      C3667   1.410       .  A
C3667      C3668   1.413       .  A
C3667      C3674   1.505       .  S
C3668      C3669   1.418       .  A
C3668      H3673   1.084       .  S
C3669      C3670   1.407       .  A
C3670      C3671   1.506       .  S
C3671      H3675   1.111       .  S
C3671      H3676   1.110       .  S
C3671      H3677   1.110       .  S
C3674      H3678   1.110       .  S
C3674      H3679   1.110       .  S
C3674      H3680   1.111       .  S
C3681      C3682   1.407       .  A
C3681      C3686   1.418   1_565  A
C3681      H3688   1.084       .  S
C3682      C3683   1.419       .  A
C3683      C3684   1.411   1_565  A
C3683      C3690   1.509       .  S
C3684      C3685   1.404       .  A
C3684      H3689   1.084       .  S
C3685      C3686   1.418       .  A
C3686      C3687   1.505       .  S
C3687      H3691   1.111       .  S
C3687      H3692   1.110       .  S
C3687      H3693   1.110       .  S
C3690      H3694   1.110       .  S
C3690      H3695   1.109       .  S
C3690      H3696   1.111       .  S
C3697      C3698   1.404       .  A
C3697      C3702   1.406   1_465  A
C3697      H3704   1.085   1_565  S
C3698      C3699   1.415   1_455  A
C3699      C3700   1.381       .  A
C3699      C3706   1.514       .  S
C3700      C3701   1.395   1_565  A
C3700      H3705   1.085       .  S
C3701      C3702   1.412       .  A
C3702      C3703   1.506   1_655  S
C3703      H3707   1.110       .  S
C3703      H3708   1.108   1_455  S
C3703      H3709   1.111       .  S
C3706      H3710   1.109       .  S
C3706      H3711   1.110       .  S
C3706      H3712   1.111       .  S
C3713      C3714   1.403       .  A
C3713      C3718   1.409       .  A
C3713      H3720   1.084       .  S
C3714      C3715   1.417       .  A
C3715      C3716   1.417       .  A
C3715      C3722   1.505       .  S
C3716      C3717   1.406       .  A
C3716      H3721   1.084       .  S
C3717      C3718   1.418       .  A
C3718      C3719   1.509       .  S
C3719      H3723   1.111       .  S
C3719      H3724   1.109       .  S
C3719      H3725   1.110       .  S
C3722      H3726   1.110       .  S
C3722      H3727   1.110       .  S
C3722      H3728   1.111       .  S
C3729      C3730   1.405       .  A
C3729      C3734   1.408   1_455  A
C3729      H3736   1.084       .  S
C3730      C3731   1.415   1_455  A
C3731      C3732   1.383       .  A
C3731      C3738   1.514       .  S
C3732      C3733   1.396       .  A
C3732      H3737   1.085       .  S
C3733      C3734   1.411       .  A
C3734      C3735   1.506       .  S
C3735      H3739   1.111   1_655  S
C3735      H3740   1.110       .  S
C3735      H3741   1.110       .  S
C3738      H3742   1.110       .  S
C3738      H3743   1.109       .  S
C3738      H3744   1.111       .  S
C3745      C3746   1.401       .  A
C3745      C3750   1.402       .  A
C3745      H3752   1.084       .  S
C3746      C3747   1.413       .  A
C3747      C3748   1.396       .  A
C3747      C3754   1.509       .  S
C3748      C3749   1.397       .  A
C3748      H3753   1.085       .  S
C3749      C3750   1.407       .  A
C3750      C3751   1.505       .  S
C3751      H3755   1.111       .  S
C3751      H3756   1.111       .  S
C3751      H3757   1.110       .  S
C3754      H3758   1.109       .  S
C3754      H3759   1.111       .  S
C3754      H3760   1.111       .  S
C3761      C3762   1.397       .  A
C3761      C3766   1.404       .  A
C3761      H3768   1.085       .  S
C3762      C3763   1.421       .  A
C3763      C3764   1.414       .  A
C3763      C3770   1.507       .  S
C3764      C3765   1.402       .  A
C3764      H3769   1.084       .  S
C3765      C3766   1.424       .  A
C3766      C3767   1.510       .  S
C3767      H3771   1.110       .  S
C3767      H3772   1.111       .  S
C3767      H3773   1.108       .  S
C3770      H3774   1.110       .  S
C3770      H3775   1.110       .  S
C3770      H3776   1.111       .  S
C3777      C3778   1.401       .  A
C3777      C3782   1.418       .  A
C3777      H3784   1.084       .  S
C3778      C3779   1.442       .  A
C3779      C3780   1.404       .  A
C3779      C3786   1.511       .  S
C3780      C3781   1.387       .  A
C3780      H3785   1.085       .  S
C3781      C3782   1.429       .  A
C3782      C3783   1.508       .  S
C3783      H3787   1.111       .  S
C3783      H3788   1.108       .  S
C3783      H3789   1.110       .  S
C3786      H3790   1.108       .  S
C3786      H3791   1.110       .  S
C3786      H3792   1.111       .  S
C3793      C3794   1.418       .  A
C3793      C3798   1.412   1_565  A
C3793      H3800   1.084       .  S
C3794      C3795   1.405       .  A
C3795      C3796   1.408   1_565  A
C3795      C3802   1.507       .  S
C3796      C3797   1.421       .  A
C3796      H3801   1.083       .  S
C3797      C3798   1.409       .  A
C3798      C3799   1.505       .  S
C3799      H3803   1.111       .  S
C3799      H3804   1.110       .  S
C3799      H3805   1.110       .  S
C3802      H3806   1.110       .  S
C3802      H3807   1.110       .  S
C3802      H3808   1.111       .  S
C3809      C3810   1.405       .  A
C3809      C3814   1.405   1_565  A
C3809      H3816   1.083       .  S
C3810      C3811   1.421       .  A
C3811      C3812   1.392       .  A
C3811      C3818   1.513       .  S
C3812      C3813   1.402       .  A
C3812      H3817   1.084       .  S
C3813      C3814   1.416   1_565  A
C3814      C3815   1.504       .  S
C3815      H3819   1.111       .  S
C3815      H3820   1.110       .  S
C3815      H3821   1.109       .  S
C3818      H3822   1.110       .  S
C3818      H3823   1.110       .  S
C3818      H3824   1.111       .  S
C3825      C3826   1.404       .  A
C3825      C3830   1.417       .  A
C3825      H3832   1.084       .  S
C3826      C3827   1.424       .  A
C3827      C3828   1.409       .  A
C3827      C3834   1.509       .  S
C3828      C3829   1.399       .  A
C3828      H3833   1.084       .  S
C3829      C3830   1.421       .  A
C3830      C3831   1.506       .  S
C3831      H3835   1.111       .  S
C3831      H3836   1.110       .  S
C3831      H3837   1.110       .  S
C3834      H3838   1.110       .  S
C3834      H3839   1.108       .  S
C3834      H3840   1.111       .  S
C3841      C3842   1.415       .  A
C3841      C3846   1.419       .  A
C3841      H3848   1.084       .  S
C3842      C3843   1.410       .  A
C3843      C3844   1.411       .  A
C3843      C3850   1.506       .  S
C3844      C3845   1.413       .  A
C3844      H3849   1.084       .  S
C3845      C3846   1.412       .  A
C3846      C3847   1.504       .  S
C3847      H3851   1.111       .  S
C3847      H3852   1.110       .  S
C3847      H3853   1.111       .  S
C3850      H3854   1.111       .  S
C3850      H3855   1.110       .  S
C3850      H3856   1.111       .  S
C3857      C3858   1.395       .  A
C3857      C3862   1.379       .  A
C3857      H3864   1.085       .  S
C3858      C3859   1.408       .  A
C3859      C3860   1.406       .  A
C3859      C3866   1.505       .  S
C3860      C3861   1.404       .  A
C3860      H3865   1.084       .  S
C3861      C3862   1.411       .  A
C3862      C3863   1.512       .  S
C3863      H3867   1.111       .  S
C3863      H3868   1.109       .  S
C3863      H3869   1.109       .  S
C3866      H3870   1.110       .  S
C3866      H3871   1.111       .  S
C3866      H3872   1.111       .  S
C3873      C3874   1.403       .  A
C3873      C3878   1.403       .  A
C3873      H3880   1.084       .  S
C3874      C3875   1.419       .  A
C3875      C3876   1.398       .  A
C3875      C3882   1.510       .  S
C3876      C3877   1.401       .  A
C3876      H3881   1.084       .  S
C3877      C3878   1.418       .  A
C3878      C3879   1.506       .  S
C3879      H3883   1.111       .  S
C3879      H3884   1.109       .  S
C3879      H3885   1.110       .  S
C3882      H3886   1.110       .  S
C3882      H3887   1.109       .  S
C3882      H3888   1.111       .  S
C3889      C3890   1.403       .  A
C3889      C3894   1.415       .  A
C3889      H3896   1.084       .  S
C3890      C3891   1.424       .  A
C3891      C3892   1.407       .  A
C3891      C3898   1.510       .  S
C3892      C3893   1.398       .  A
C3892      H3897   1.085       .  S
C3893      C3894   1.421       .  A
C3894      C3895   1.506       .  S
C3895      H3899   1.111       .  S
C3895      H3900   1.110       .  S
C3895      H3901   1.110       .  S
C3898      H3902   1.108       .  S
C3898      H3903   1.111       .  S
C3898      H3904   1.111       .  S
C3905      C3906   1.404       .  A
C3905      C3910   1.415   1_655  A
C3905      H3912   1.084       .  S
C3906      C3907   1.422       .  A
C3907      C3908   1.410   1_655  A
C3907      C3914   1.509       .  S
C3908      C3909   1.401       .  A
C3908      H3913   1.084       .  S
C3909      C3910   1.419       .  A
C3910      C3911   1.506       .  S
C3911      H3915   1.111       .  S
C3911      H3916   1.110       .  S
C3911      H3917   1.110       .  S
C3914      H3918   1.108       .  S
C3914      H3919   1.111       .  S
C3914      H3920   1.111       .  S
C3921      C3922   1.406       .  A
C3921      C3926   1.408       .  A
C3921      H3928   1.084       .  S
C3922      C3923   1.419       .  A
C3923      C3924   1.393       .  A
C3923      C3930   1.512       .  S
C3924      C3925   1.402       .  A
C3924      H3929   1.084       .  S
C3925      C3926   1.416       .  A
C3926      C3927   1.507   1_655  S
C3927      H3931   1.111       .  S
C3927      H3932   1.109       .  S
C3927      H3933   1.110       .  S
C3930      H3934   1.111       .  S
C3930      H3935   1.109       .  S
C3930      H3936   1.111       .  S
C3937      C3938   1.412       .  A
C3937      C3942   1.410       .  A
C3937      H3944   1.084       .  S
C3938      C3939   1.411       .  A
C3939      C3940   1.416       .  A
C3939      C3946   1.504       .  S
C3940      C3941   1.413       .  A
C3940      H3945   1.084       .  S
C3941      C3942   1.409       .  A
C3942      C3943   1.506       .  S
C3943      H3947   1.111       .  S
C3943      H3948   1.110       .  S
C3943      H3949   1.111       .  S
C3946      H3950   1.111       .  S
C3946      H3951   1.110       .  S
C3946      H3952   1.111       .  S
C3953      C3954   1.409       .  A
C3953      C3958   1.407   1_565  A
C3953      H3960   1.085       .  S
C3954      C3955   1.411       .  A
C3955      C3956   1.413   1_565  A
C3955      C3962   1.505       .  S
C3956      C3957   1.411       .  A
C3956      H3961   1.084       .  S
C3957      C3958   1.410       .  A
C3958      C3959   1.507       .  S
C3959      H3963   1.111       .  S
C3959      H3964   1.111       .  S
C3959      H3965   1.110       .  S
C3962      H3966   1.110       .  S
C3962      H3967   1.111       .  S
C3962      H3968   1.111       .  S
C3969      C3970   1.416       .  A
C3969      C3974   1.415   1_655  A
C3969      H3976   1.084       .  S
C3970      C3971   1.404       .  A
C3971      C3972   1.405   1_655  A
C3971      C3978   1.507       .  S
C3972      C3973   1.418       .  A
C3972      H3977   1.084       .  S
C3973      C3974   1.409       .  A
C3974      C3975   1.504       .  S
C3975      H3979   1.111       .  S
C3975      H3980   1.111       .  S
C3975      H3981   1.110       .  S
C3978      H3982   1.110       .  S
C3978      H3983   1.111       .  S
C3978      H3984   1.111       .  S
C3985      C3986   1.404       .  A
C3985      C3990   1.398       .  A
C3985      H3992   1.084       .  S
C3986      C3987   1.416       .  A
C3987      C3988   1.397   1_565  A
C3987      C3994   1.509       .  S
C3988      C3989   1.402   1_545  A
C3988      H3993   1.085       .  S
C3989      C3990   1.411       .  A
C3990      C3991   1.509       .  S
C3991      H3995   1.111       .  S
C3991      H3996   1.111   1_565  S
C3991      H3997   1.109       .  S
C3994      H3998   1.110       .  S
C3994      H3999   1.111       .  S
C3994      H4000   1.111       .  S
C4001      C4002   1.405       .  A
C4001      C4006   1.405   1_655  A
C4001      H4008   1.084       .  S
C4002      C4003   1.419       .  A
C4003      C4004   1.394       .  A
C4003      C4010   1.507       .  S
C4004      C4005   1.400       .  A
C4004      H4009   1.085       .  S
C4005      C4006   1.416   1_655  A
C4006      C4007   1.507       .  S
C4007      H4011   1.111       .  S
C4007      H4012   1.110       .  S
C4007      H4013   1.110       .  S
C4010      H4014   1.107       .  S
C4010      H4015   1.109       .  S
C4010      H4016   1.111       .  S
C4017      C4018   1.401       .  A
C4017      C4022   1.398       .  A
C4017      H4024   1.085       .  S
C4018      C4019   1.410       .  A
C4019      C4020   1.396       .  A
C4019      C4026   1.504       .  S
C4020      C4021   1.399       .  A
C4020      H4025   1.085       .  S
C4021      C4022   1.413       .  A
C4022      C4023   1.508       .  S
C4023      H4027   1.111       .  S
C4023      H4028   1.111       .  S
C4023      H4029   1.109       .  S
C4026      H4030   1.105       .  S
C4026      H4031   1.110       .  S
C4026      H4032   1.111       .  S
C4033      C4034   1.391       .  A
C4033      C4038   1.407       .  A
C4033      H4040   1.084       .  S
C4034      C4035   1.427       .  A
C4035      C4036   1.414       .  A
C4035      C4042   1.509       .  S
C4036      C4037   1.400       .  A
C4036      H4041   1.084       .  S
C4037      C4038   1.438       .  A
C4038      C4039   1.511       .  S
C4039      H4043   1.111       .  S
C4039      H4044   1.110       .  S
C4039      H4045   1.109       .  S
C4042      H4046   1.110       .  S
C4042      H4047   1.108       .  S
C4042      H4048   1.111       .  S
C4049      C4050   1.404       .  A
C4049      C4054   1.403       .  A
C4049      H4056   1.084       .  S
C4050      C4051   1.411       .  A
C4051      C4052   1.383       .  A
C4051      C4058   1.511       .  S
C4052      C4053   1.398       .  A
C4052      H4057   1.085       .  S
C4053      C4054   1.406       .  A
C4054      C4055   1.505       .  S
C4055      H4059   1.111       .  S
C4055      H4060   1.110       .  S
C4055      H4061   1.110       .  S
C4058      H4062   1.108       .  S
C4058      H4063   1.109       .  S
C4058      H4064   1.111       .  S
C4065      C4066   1.399       .  A
C4065      C4070   1.407       .  A
C4065      H4072   1.084       .  S
C4066      C4067   1.419       .  A
C4067      C4068   1.415       .  A
C4067      C4074   1.506       .  S
C4068      C4069   1.404       .  A
C4068      H4073   1.084       .  S
C4069      C4070   1.421       .  A
C4070      C4071   1.509       .  S
C4071      H4075   1.111       .  S
C4071      H4076   1.110       .  S
C4071      H4077   1.107       .  S
C4074      H4078   1.110       .  S
C4074      H4079   1.110       .  S
C4074      H4080   1.111       .  S
C4081      C4082   1.402       .  A
C4081      C4086   1.414       .  A
C4081      H4088   1.084       .  S
C4082      C4083   1.425       .  A
C4083      C4084   1.409       .  A
C4083      C4090   1.510       .  S
C4084      C4085   1.398       .  A
C4084      H4089   1.084       .  S
C4085      C4086   1.420       .  A
C4086      C4087   1.507       .  S
C4087      H4091   1.111       .  S
C4087      H4092   1.110       .  S
C4087      H4093   1.109       .  S
C4090      H4094   1.108       .  S
C4090      H4095   1.110       .  S
C4090      H4096   1.111       .  S
C4097      C4098   1.420       .  A
C4097      C4102   1.412       .  A
C4097      H4104   1.083       .  S
C4098      C4099   1.411       .  A
C4099      C4100   1.413       .  A
C4099      C4106   1.505       .  S
C4100      C4101   1.416       .  A
C4100      H4105   1.084       .  S
C4101      C4102   1.407       .  A
C4102      C4103   1.506       .  S
C4103      H4107   1.111       .  S
C4103      H4108   1.110       .  S
C4103      H4109   1.111       .  S
C4106      H4110   1.110       .  S
C4106      H4111   1.110       .  S
C4106      H4112   1.111       .  S
C4113      C4114   1.423       .  A
C4113      C4118   1.414   1_655  A
C4113      H4120   1.084       .  S
C4114      C4115   1.404       .  A
C4115      C4116   1.412   1_655  A
C4115      C4122   1.505       .  S
C4116      C4117   1.425       .  A
C4116      H4121   1.083       .  S
C4117      C4118   1.406       .  A
C4118      C4119   1.504       .  S
C4119      H4123   1.111       .  S
C4119      H4124   1.110       .  S
C4119      H4125   1.110       .  S
C4122      H4126   1.110       .  S
C4122      H4127   1.110       .  S
C4122      H4128   1.111       .  S
C4129      C4130   1.422   1_554  A
C4129      C4134   1.409       .  A
C4129      H4136   1.083   1_554  S
C4130      C4131   1.410       .  A
C4131      C4132   1.417   1_556  A
C4131      C4138   1.504       .  S
C4132      C4133   1.418       .  A
C4132      H4137   1.084       .  S
C4133      C4134   1.405       .  A
C4134      C4135   1.507       .  S
C4135      H4139   1.110       .  S
C4135      H4140   1.110       .  S
C4135      H4141   1.111       .  S
C4138      H4142   1.111       .  S
C4138      H4143   1.110       .  S
C4138      H4144   1.111       .  S
C4145      C4146   1.416       .  A
C4145      C4150   1.418       .  A
C4145      H4152   1.084       .  S
C4146      C4147   1.409       .  A
C4147      C4148   1.413       .  A
C4147      C4154   1.506       .  S
C4148      C4149   1.419       .  A
C4148      H4153   1.084       .  S
C4149      C4150   1.412       .  A
C4150      C4151   1.504       .  S
C4151      H4155   1.111       .  S
C4151      H4156   1.110       .  S
C4151      H4157   1.111       .  S
C4154      H4158   1.111       .  S
C4154      H4159   1.110       .  S
C4154      H4160   1.111       .  S
C4161      C4162   1.422       .  A
C4161      C4166   1.411       .  A
C4161      H4168   1.082       .  S
C4162      C4163   1.410       .  A
C4163      C4164   1.414       .  A
C4163      C4170   1.505       .  S
C4164      C4165   1.419       .  A
C4164      H4169   1.084       .  S
C4165      C4166   1.406       .  A
C4166      C4167   1.506       .  S
C4167      H4171   1.111       .  S
C4167      H4172   1.110       .  S
C4167      H4173   1.110       .  S
C4170      H4174   1.110       .  S
C4170      H4175   1.110       .  S
C4170      H4176   1.111       .  S
C4177      C4178   1.422       .  A
C4177      C4182   1.407       .  A
C4177      H4184   1.083       .  S
C4178      C4179   1.409       .  A
C4179      C4180   1.418       .  A
C4179      C4186   1.504       .  S
C4180      C4181   1.419       .  A
C4180      H4185   1.084       .  S
C4181      C4182   1.404       .  A
C4182      C4183   1.508       .  S
C4183      H4187   1.111       .  S
C4183      H4188   1.111       .  S
C4183      H4189   1.110       .  S
C4186      H4190   1.110       .  S
C4186      H4191   1.110       .  S
C4186      H4192   1.111       .  S
C4193      C4194   1.403       .  A
C4193      C4198   1.401       .  A
C4193      H4200   1.084       .  S
C4194      C4195   1.412       .  A
C4195      C4196   1.399   1_554  A
C4195      C4202   1.508       .  S
C4196      C4197   1.403       .  A
C4196      H4201   1.084       .  S
C4197      C4198   1.416   1_556  A
C4198      C4199   1.508       .  S
C4199      H4203   1.111       .  S
C4199      H4204   1.110   1_554  S
C4199      H4205   1.109       .  S
C4202      H4206   1.108   1_554  S
C4202      H4207   1.111       .  S
C4202      H4208   1.111   1_554  S
C4209      C4210   1.412       .  A
C4209      C4214   1.417   1_655  A
C4209      H4216   1.084       .  S
C4210      C4211   1.411       .  A
C4211      C4212   1.409   1_655  A
C4211      C4218   1.507       .  S
C4212      C4213   1.410       .  A
C4212      H4217   1.084       .  S
C4213      C4214   1.412       .  A
C4214      C4215   1.504       .  S
C4215      H4219   1.111       .  S
C4215      H4220   1.111       .  S
C4215      H4221   1.110       .  S
C4218      H4222   1.110       .  S
C4218      H4223   1.111       .  S
C4218      H4224   1.111       .  S
C4225      C4226   1.406       .  A
C4225      C4230   1.412       .  A
C4225      H4232   1.084       .  S
C4226      C4227   1.415       .  A
C4227      C4228   1.417       .  A
C4227      C4234   1.505       .  S
C4228      C4229   1.408       .  A
C4228      H4233   1.084       .  S
C4229      C4230   1.415       .  A
C4230      C4231   1.507       .  S
C4231      H4235   1.111       .  S
C4231      H4236   1.110       .  S
C4231      H4237   1.110       .  S
C4234      H4238   1.110       .  S
C4234      H4239   1.111       .  S
C4234      H4240   1.111       .  S
C4241      C4242   1.408       .  A
C4241      C4246   1.409       .  A
C4241      H4248   1.085       .  S
C4242      C4243   1.412       .  A
C4243      C4244   1.415       .  A
C4243      C4250   1.505       .  S
C4244      C4245   1.409       .  A
C4244      H4249   1.084       .  S
C4245      C4246   1.411       .  A
C4246      C4247   1.507       .  S
C4247      H4251   1.111       .  S
C4247      H4252   1.110       .  S
C4247      H4253   1.111       .  S
C4250      H4254   1.111       .  S
C4250      H4255   1.110       .  S
C4250      H4256   1.111       .  S
C4257      C4258   1.425       .  A
C4257      C4262   1.410       .  A
C4257      H4264   1.083       .  S
C4258      C4259   1.406       .  A
C4259      C4260   1.415       .  A
C4259      C4266   1.504       .  S
C4260      C4261   1.424       .  A
C4260      H4265   1.083       .  S
C4261      C4262   1.404       .  A
C4262      C4263   1.506       .  S
C4263      H4267   1.111       .  S
C4263      H4268   1.110       .  S
C4263      H4269   1.110       .  S
C4266      H4270   1.110       .  S
C4266      H4271   1.110       .  S
C4266      H4272   1.111       .  S
C4273      C4274   1.405       .  A
C4273      C4278   1.406   1_655  A
C4273      H4280   1.084       .  S
C4274      C4275   1.413       .  A
C4275      C4276   1.384       .  A
C4275      C4282   1.513       .  S
C4276      C4277   1.396   1_655  A
C4276      H4281   1.085       .  S
C4277      C4278   1.407       .  A
C4278      C4279   1.504       .  S
C4279      H4283   1.111       .  S
C4279      H4284   1.111       .  S
C4279      H4285   1.110       .  S
C4282      H4286   1.110       .  S
C4282      H4287   1.109       .  S
C4282      H4288   1.111       .  S
C4289      C4290   1.401       .  A
C4289      C4294   1.416   1_554  A
C4289      H4296   1.084       .  S
C4290      C4291   1.437       .  A
C4291      C4292   1.411   1_554  A
C4291      C4298   1.511       .  S
C4292      C4293   1.393       .  A
C4292      H4297   1.084       .  S
C4293      C4294   1.427       .  A
C4294      C4295   1.509       .  S
C4295      H4299   1.111   1_556  S
C4295      H4300   1.110       .  S
C4295      H4301   1.108       .  S
C4298      H4302   1.110       .  S
C4298      H4303   1.109       .  S
C4298      H4304   1.111       .  S
C4305      C4306   1.405   1_554  A
C4305      C4310   1.408   1_455  A
C4305      H4312   1.084       .  S
C4306      C4307   1.414   1_455  A
C4307      C4308   1.387       .  A
C4307      C4314   1.513       .  S
C4308      C4309   1.396   1_556  A
C4308      H4313   1.085       .  S
C4309      C4310   1.410       .  A
C4310      C4311   1.505       .  S
C4311      H4315   1.111   1_655  S
C4311      H4316   1.111       .  S
C4311      H4317   1.110       .  S
C4314      H4318   1.110       .  S
C4314      H4319   1.109       .  S
C4314      H4320   1.111       .  S
C4321      C4322   1.422       .  A
C4321      C4326   1.410       .  A
C4321      H4328   1.083       .  S
C4322      C4323   1.409       .  A
C4323      C4324   1.414       .  A
C4323      C4330   1.505       .  S
C4324      C4325   1.419       .  A
C4324      H4329   1.083       .  S
C4325      C4326   1.407       .  A
C4326      C4327   1.507       .  S
C4327      H4331   1.111       .  S
C4327      H4332   1.110       .  S
C4327      H4333   1.110       .  S
C4330      H4334   1.110       .  S
C4330      H4335   1.110       .  S
C4330      H4336   1.111       .  S
C4337      C4338   1.403       .  A
C4337      C4342   1.394       .  A
C4337      H4344   1.083       .  S
C4338      C4339   1.415       .  A
C4339      C4340   1.406       .  A
C4339      C4346   1.507       .  S
C4340      C4341   1.407       .  A
C4340      H4345   1.084       .  S
C4341      C4342   1.420       .  A
C4342      C4343   1.512       .  S
C4343      H4347   1.111       .  S
C4343      H4348   1.110       .  S
C4343      H4349   1.110       .  S
C4346      H4350   1.109       .  S
C4346      H4351   1.111       .  S
C4346      H4352   1.111       .  S
C4353      C4354   1.408       .  A
C4353      C4358   1.416       .  A
C4353      H4360   1.084       .  S
C4354      C4355   1.413       .  A
C4355      C4356   1.409       .  A
C4355      C4362   1.507       .  S
C4356      C4357   1.407       .  A
C4356      H4361   1.085       .  S
C4357      C4358   1.413       .  A
C4358      C4359   1.505       .  S
C4359      H4363   1.111       .  S
C4359      H4364   1.111       .  S
C4359      H4365   1.110       .  S
C4362      H4366   1.110       .  S
C4362      H4367   1.111       .  S
C4362      H4368   1.111       .  S
C4369      C4370   1.404       .  A
C4369      C4374   1.409   1_556  A
C4369      H4376   1.084       .  S
C4370      C4371   1.416       .  A
C4371      C4372   1.416   1_556  A
C4371      C4378   1.505       .  S
C4372      C4373   1.406       .  A
C4372      H4377   1.084       .  S
C4373      C4374   1.417       .  A
C4374      C4375   1.508       .  S
C4375      H4379   1.111       .  S
C4375      H4380   1.110       .  S
C4375      H4381   1.110       .  S
C4378      H4382   1.110       .  S
C4378      H4383   1.110       .  S
C4378      H4384   1.111       .  S
C4385      C4386   1.402       .  A
C4385      C4390   1.406   1_556  A
C4385      H4392   1.084   1_556  S
C4386      C4387   1.418       .  A
C4387      C4388   1.387       .  A
C4387      C4394   1.513       .  S
C4388      C4389   1.396   1_556  A
C4388      H4393   1.085       .  S
C4389      C4390   1.415       .  A
C4390      C4391   1.506       .  S
C4391      H4395   1.111       .  S
C4391      H4396   1.109       .  S
C4391      H4397   1.110       .  S
C4394      H4398   1.111       .  S
C4394      H4399   1.109       .  S
C4394      H4400   1.111       .  S
C4401      C4402   1.410       .  A
C4401      C4406   1.408       .  A
C4401      H4408   1.085       .  S
C4402      C4403   1.412       .  A
C4403      C4404   1.417       .  A
C4403      C4410   1.504       .  S
C4404      C4405   1.412       .  A
C4404      H4409   1.084       .  S
C4405      C4406   1.411       .  A
C4406      C4407   1.507       .  S
C4407      H4411   1.111       .  S
C4407      H4412   1.110       .  S
C4407      H4413   1.111       .  S
C4410      H4414   1.111       .  S
C4410      H4415   1.110       .  S
C4410      H4416   1.111       .  S
C4417      C4418   1.418       .  A
C4417      C4422   1.415   1_655  A
C4417      H4424   1.084       .  S
C4418      C4419   1.406       .  A
C4419      C4420   1.407   1_655  A
C4419      C4426   1.507       .  S
C4420      C4421   1.421       .  A
C4420      H4425   1.083       .  S
C4421      C4422   1.410       .  A
C4422      C4423   1.504       .  S
C4423      H4427   1.111       .  S
C4423      H4428   1.110       .  S
C4423      H4429   1.110       .  S
C4426      H4430   1.111       .  S
C4426      H4431   1.110       .  S
C4426      H4432   1.110       .  S
C4433      C4434   1.422   1_554  A
C4433      C4438   1.408       .  A
C4433      H4440   1.083   1_554  S
C4434      C4435   1.408       .  A
C4435      C4436   1.414   1_556  A
C4435      C4442   1.505       .  S
C4436      C4437   1.421       .  A
C4436      H4441   1.083       .  S
C4437      C4438   1.406       .  A
C4438      C4439   1.507       .  S
C4439      H4443   1.111       .  S
C4439      H4444   1.110       .  S
C4439      H4445   1.110       .  S
C4442      H4446   1.110       .  S
C4442      H4447   1.110       .  S
C4442      H4448   1.111       .  S
C4449      C4450   1.405       .  A
C4449      C4454   1.397       .  A
C4449      H4456   1.084       .  S
C4450      C4451   1.417       .  A
C4451      C4452   1.404   1_556  A
C4451      C4458   1.508   1_556  S
C4452      C4453   1.405       .  A
C4452      H4457   1.084       .  S
C4453      C4454   1.415   1_554  A
C4454      C4455   1.510       .  S
C4455      H4459   1.111       .  S
C4455      H4460   1.109       .  S
C4455      H4461   1.110   1_556  S
C4458      H4462   1.109   1_554  S
C4458      H4463   1.111       .  S
C4458      H4464   1.111       .  S
C4465      C4466   1.400       .  A
C4465      C4470   1.392       .  A
C4465      H4472   1.084       .  S
C4466      C4467   1.415       .  A
C4467      C4468   1.408       .  A
C4467      C4474   1.507       .  S
C4468      C4469   1.405       .  A
C4468      H4473   1.084   1_655  S
C4469      C4470   1.421       .  A
C4470      C4471   1.513       .  S
C4471      H4475   1.111       .  S
C4471      H4476   1.110       .  S
C4471      H4477   1.111       .  S
C4474      H4478   1.110       .  S
C4474      H4479   1.109       .  S
C4474      H4480   1.111   1_655  S
C4481      C4482   1.395       .  A
C4481      C4486   1.383       .  A
C4481      H4488   1.085       .  S
C4482      C4483   1.408       .  A
C4483      C4484   1.405       .  A
C4483      C4490   1.504       .  S
C4484      C4485   1.403       .  A
C4484      H4489   1.084       .  S
C4485      C4486   1.412       .  A
C4486      C4487   1.513       .  S
C4487      H4491   1.111       .  S
C4487      H4492   1.109       .  S
C4487      H4493   1.110       .  S
C4490      H4494   1.110       .  S
C4490      H4495   1.111       .  S
C4490      H4496   1.111       .  S
C4497      C4498   1.393       .  A
C4497      C4502   1.410       .  A
C4497      H4504   1.084       .  S
C4498      C4499   1.426       .  A
C4499      C4500   1.418       .  A
C4499      C4506   1.507       .  S
C4500      C4501   1.402       .  A
C4500      H4505   1.084       .  S
C4501      C4502   1.433       .  A
C4502      C4503   1.509       .  S
C4503      H4507   1.111       .  S
C4503      H4508   1.109       .  S
C4503      H4509   1.110       .  S
C4506      H4510   1.110       .  S
C4506      H4511   1.109       .  S
C4506      H4512   1.111       .  S
C4513      C4514   1.416       .  A
C4513      C4518   1.411       .  A
C4513      H4520   1.084       .  S
C4514      C4515   1.411       .  A
C4515      C4516   1.416       .  A
C4515      C4522   1.504       .  S
C4516      C4517   1.414       .  A
C4516      H4521   1.084       .  S
C4517      C4518   1.409       .  A
C4518      C4519   1.507       .  S
C4519      H4523   1.111       .  S
C4519      H4524   1.110       .  S
C4519      H4525   1.111       .  S
C4522      H4526   1.111       .  S
C4522      H4527   1.110       .  S
C4522      H4528   1.111       .  S
C4529      C4530   1.396       .  A
C4529      C4534   1.408       .  A
C4529      H4536   1.084       .  S
C4530      C4531   1.421       .  A
C4531      C4532   1.414       .  A
C4531      C4538   1.507       .  S
C4532      C4533   1.401       .  A
C4532      H4537   1.084       .  S
C4533      C4534   1.427       .  A
C4534      C4535   1.510       .  S
C4535      H4539   1.111       .  S
C4535      H4540   1.108       .  S
C4535      H4541   1.110       .  S
C4538      H4542   1.110       .  S
C4538      H4543   1.109       .  S
C4538      H4544   1.111       .  S
C4545      C4546   1.406       .  A
C4545      C4550   1.408       .  A
C4545      H4552   1.084       .  S
C4546      C4547   1.422       .  A
C4547      C4548   1.384       .  A
C4547      C4554   1.515       .  S
C4548      C4549   1.398       .  A
C4548      H4553   1.083       .  S
C4549      C4550   1.416       .  A
C4550      C4551   1.506       .  S
C4551      H4555   1.111       .  S
C4551      H4556   1.111       .  S
C4551      H4557   1.109       .  S
C4554      H4558   1.106       .  S
C4554      H4559   1.111       .  S
C4554      H4560   1.111       .  S
C4561      C4562   1.418       .  A
C4561      C4566   1.405       .  A
C4561      H4568   1.084       .  S
C4562      C4563   1.408       .  A
C4563      C4564   1.413       .  A
C4563      C4570   1.504       .  S
C4564      C4565   1.416       .  A
C4564      H4569   1.084       .  S
C4565      C4566   1.404       .  A
C4566      C4567   1.508       .  S
C4567      H4571   1.111       .  S
C4567      H4572   1.110       .  S
C4567      H4573   1.110       .  S
C4570      H4574   1.110       .  S
C4570      H4575   1.110       .  S
C4570      H4576   1.111       .  S
C4577      C4578   1.402       .  A
C4577      C4582   1.400       .  A
C4577      H4584   1.084       .  S
C4578      C4579   1.415       .  A
C4579      C4580   1.398       .  A
C4579      C4586   1.507       .  S
C4580      C4581   1.399       .  A
C4580      H4585   1.085       .  S
C4581      C4582   1.416       .  A
C4582      C4583   1.508       .  S
C4583      H4587   1.111       .  S
C4583      H4588   1.111       .  S
C4583      H4589   1.110       .  S
C4586      H4590   1.105       .  S
C4586      H4591   1.110       .  S
C4586      H4592   1.111       .  S
C4593      C4594   1.416       .  A
C4593      C4598   1.414   1_655  A
C4593      H4600   1.084       .  S
C4594      C4595   1.405       .  A
C4595      C4596   1.408   1_655  A
C4595      C4602   1.507       .  S
C4596      C4597   1.420       .  A
C4596      H4601   1.083       .  S
C4597      C4598   1.410       .  A
C4598      C4599   1.504       .  S
C4599      H4603   1.111       .  S
C4599      H4604   1.110       .  S
C4599      H4605   1.110       .  S
C4602      H4606   1.110       .  S
C4602      H4607   1.111       .  S
C4602      H4608   1.111       .  S
C4609      C4610   1.403       .  A
C4609      C4614   1.406   1_655  A
C4609      H4616   1.084       .  S
C4610      C4611   1.422       .  A
C4611      C4612   1.385       .  A
C4611      C4618   1.515       .  S
C4612      C4613   1.397       .  A
C4612      H4617   1.084       .  S
C4613      C4614   1.416   1_655  A
C4614      C4615   1.507       .  S
C4615      H4619   1.111       .  S
C4615      H4620   1.111       .  S
C4615      H4621   1.109       .  S
C4618      H4622   1.110       .  S
C4618      H4623   1.111       .  S
C4618      H4624   1.111       .  S
C4625      C4626   1.397       .  A
C4625      C4630   1.390       .  A
C4625      H4632   1.085       .  S
C4626      C4627   1.406       .  A
C4627      C4628   1.401       .  A
C4627      C4634   1.505       .  S
C4628      C4629   1.401       .  A
C4628      H4633   1.084       .  S
C4629      C4630   1.409       .  A
C4630      C4631   1.510       .  S
C4631      H4635   1.111       .  S
C4631      H4636   1.110       .  S
C4631      H4637   1.110       .  S
C4634      H4638   1.110       .  S
C4634      H4639   1.111       .  S
C4634      H4640   1.111       .  S
C4641      C4642   1.403       .  A
C4641      C4646   1.409       .  A
C4641      H4648   1.084       .  S
C4642      C4643   1.416       .  A
C4643      C4644   1.416       .  A
C4643      C4650   1.505       .  S
C4644      C4645   1.406       .  A
C4644      H4649   1.084       .  S
C4645      C4646   1.417       .  A
C4646      C4647   1.508       .  S
C4647      H4651   1.111       .  S
C4647      H4652   1.110       .  S
C4647      H4653   1.110       .  S
C4650      H4654   1.110       .  S
C4650      H4655   1.110       .  S
C4650      H4656   1.111       .  S
C4657      C4658   1.418       .  A
C4657      C4662   1.412       .  A
C4657      H4664   1.084       .  S
C4658      C4659   1.411       .  A
C4659      C4660   1.414       .  A
C4659      C4666   1.505       .  S
C4660      C4661   1.415       .  A
C4660      H4665   1.084       .  S
C4661      C4662   1.408       .  A
C4662      C4663   1.506       .  S
C4663      H4667   1.111       .  S
C4663      H4668   1.110       .  S
C4663      H4669   1.111       .  S
C4666      H4670   1.111       .  S
C4666      H4671   1.110       .  S
C4666      H4672   1.111       .  S
C4673      C4674   1.399       .  A
C4673      C4678   1.415       .  A
C4673      H4680   1.084       .  S
C4674      C4675   1.437       .  A
C4675      C4676   1.413       .  A
C4675      C4682   1.511       .  S
C4676      C4677   1.395       .  A
C4676      H4681   1.084       .  S
C4677      C4678   1.430       .  A
C4678      C4679   1.509       .  S
C4679      H4683   1.111       .  S
C4679      H4684   1.110       .  S
C4679      H4685   1.109       .  S
C4682      H4686   1.110       .  S
C4682      H4687   1.110       .  S
C4682      H4688   1.111       .  S
C4689      C4690   1.407       .  A
C4689      C4694   1.410   1_565  A
C4689      H4696   1.084       .  S
C4690      C4691   1.416       .  A
C4691      C4692   1.420   1_565  A
C4691      C4698   1.504       .  S
C4692      C4693   1.409       .  A
C4692      H4697   1.084       .  S
C4693      C4694   1.415       .  A
C4694      C4695   1.508       .  S
C4695      H4699   1.110       .  S
C4695      H4700   1.110       .  S
C4695      H4701   1.110       .  S
C4698      H4702   1.110       .  S
C4698      H4703   1.111       .  S
C4698      H4704   1.111       .  S
C4705      C4706   1.397       .  A
C4705      C4710   1.416   1_556  A
C4705      H4712   1.084       .  S
C4706      C4707   1.442   1_556  A
C4707      C4708   1.411       .  A
C4707      C4714   1.512   1_554  S
C4708      C4709   1.393       .  A
C4708      H4713   1.084       .  S
C4709      C4710   1.436       .  A
C4710      C4711   1.509       .  S
C4711      H4715   1.111       .  S
C4711      H4716   1.111       .  S
C4711      H4717   1.109       .  S
C4714      H4718   1.110       .  S
C4714      H4719   1.109       .  S
C4714      H4720   1.111   1_556  S
C4721      C4722   1.415       .  A
C4721      C4726   1.414       .  A
C4721      H4728   1.084       .  S
C4722      C4723   1.407       .  A
C4723      C4724   1.409       .  A
C4723      C4730   1.507       .  S
C4724      C4725   1.418       .  A
C4724      H4729   1.084       .  S
C4725      C4726   1.410       .  A
C4726      C4727   1.504       .  S
C4727      H4731   1.111       .  S
C4727      H4732   1.110       .  S
C4727      H4733   1.110       .  S
C4730      H4734   1.111       .  S
C4730      H4735   1.110       .  S
C4730      H4736   1.111       .  S
C4737      C4738   1.417       .  A
C4737      C4742   1.415       .  A
C4737      H4744   1.084       .  S
C4738      C4739   1.407       .  A
C4739      C4740   1.411       .  A
C4739      C4746   1.507       .  S
C4740      C4741   1.422       .  A
C4740      H4745   1.083       .  S
C4741      C4742   1.411       .  A
C4742      C4743   1.504       .  S
C4743      H4747   1.111       .  S
C4743      H4748   1.110       .  S
C4743      H4749   1.110       .  S
C4746      H4750   1.110       .  S
C4746      H4751   1.110       .  S
C4746      H4752   1.111       .  S
C4753      C4754   1.405       .  A
C4753      C4758   1.411       .  A
C4753      H4760   1.084       .  S
C4754      C4755   1.417       .  A
C4755      C4756   1.419       .  A
C4755      C4762   1.505       .  S
C4756      C4757   1.409       .  A
C4756      H4761   1.084       .  S
C4757      C4758   1.417       .  A
C4758      C4759   1.508       .  S
C4759      H4763   1.111       .  S
C4759      H4764   1.110       .  S
C4759      H4765   1.110       .  S
C4762      H4766   1.110       .  S
C4762      H4767   1.110       .  S
C4762      H4768   1.111       .  S
C4769      C4770   1.408       .  A
C4769      C4774   1.409       .  A
C4769      H4776   1.085       .  S
C4770      C4771   1.417   1_554  A
C4771      C4772   1.382       .  A
C4771      C4778   1.515       .  S
C4772      C4773   1.397       .  A
C4772      H4777   1.085       .  S
C4773      C4774   1.412   1_556  A
C4774      C4775   1.506       .  S
C4775      H4779   1.110       .  S
C4775      H4780   1.108       .  S
C4775      H4781   1.111       .  S
C4778      H4782   1.110       .  S
C4778      H4783   1.110       .  S
C4778      H4784   1.111       .  S
C4785      C4786   1.393       .  A
C4785      C4790   1.411   1_565  A
C4785      H4792   1.084       .  S
C4786      C4787   1.437       .  A
C4787      C4788   1.412   1_565  A
C4787      C4794   1.510       .  S
C4788      C4789   1.394       .  A
C4788      H4793   1.084       .  S
C4789      C4790   1.439       .  A
C4790      C4791   1.511       .  S
C4791      H4795   1.111       .  S
C4791      H4796   1.111       .  S
C4791      H4797   1.109       .  S
C4794      H4798   1.111       .  S
C4794      H4799   1.109       .  S
C4794      H4800   1.111   1_565  S
C4801      C4802   1.411       .  A
C4801      C4806   1.409       .  A
C4801      H4808   1.085       .  S
C4802      C4803   1.412       .  A
C4803      C4804   1.415       .  A
C4803      C4810   1.504       .  S
C4804      C4805   1.411       .  A
C4804      H4809   1.084       .  S
C4805      C4806   1.410       .  A
C4806      C4807   1.507       .  S
C4807      H4811   1.111       .  S
C4807      H4812   1.111       .  S
C4807      H4813   1.110       .  S
C4810      H4814   1.110       .  S
C4810      H4815   1.111       .  S
C4810      H4816   1.111       .  S
C4817      C4818   1.395       .  A
C4817      C4822   1.409       .  A
C4817      H4824   1.084       .  S
C4818      C4819   1.426       .  A
C4819      C4820   1.415       .  A
C4819      C4826   1.508       .  S
C4820      C4821   1.400       .  A
C4820      H4825   1.084       .  S
C4821      C4822   1.431       .  A
C4822      C4823   1.510       .  S
C4823      H4827   1.111       .  S
C4823      H4828   1.110       .  S
C4823      H4829   1.108       .  S
C4826      H4830   1.109       .  S
C4826      H4831   1.110       .  S
C4826      H4832   1.111       .  S
C4833      C4834   1.412       .  A
C4833      C4838   1.418       .  A
C4833      H4840   1.084       .  S
C4834      C4835   1.411       .  A
C4835      C4836   1.409       .  A
C4835      C4842   1.507       .  S
C4836      C4837   1.411       .  A
C4836      H4841   1.084       .  S
C4837      C4838   1.412       .  A
C4838      C4839   1.504       .  S
C4839      H4843   1.111       .  S
C4839      H4844   1.110       .  S
C4839      H4845   1.110       .  S
C4842      H4846   1.110       .  S
C4842      H4847   1.110       .  S
C4842      H4848   1.111       .  S
C4849      C4850   1.398       .  A
C4849      C4854   1.380       .  A
C4849      H4856   1.085       .  S
C4850      C4851   1.408   1_565  A
C4851      C4852   1.409       .  A
C4851      C4858   1.503       .  S
C4852      C4853   1.407       .  A
C4852      H4857   1.084       .  S
C4853      C4854   1.416   1_545  A
C4854      C4855   1.515       .  S
C4855      H4859   1.111       .  S
C4855      H4860   1.110       .  S
C4855      H4861   1.110       .  S
C4858      H4862   1.110       .  S
C4858      H4863   1.109       .  S
C4858      H4864   1.111       .  S
C4865      C4866   1.388       .  A
C4865      C4870   1.406       .  A
C4865      H4872   1.084       .  S
C4866      C4867   1.429       .  A
C4867      C4868   1.417   1_554  A
C4867      C4874   1.508       .  S
C4868      C4869   1.401       .  A
C4868      H4873   1.084       .  S
C4869      C4870   1.441   1_556  A
C4870      C4871   1.509   1_554  S
C4871      H4875   1.111   1_556  S
C4871      H4876   1.107       .  S
C4871      H4877   1.110       .  S
C4874      H4878   1.108       .  S
C4874      H4879   1.110       .  S
C4874      H4880   1.111       .  S
C4881      C4882   1.402       .  A
C4881      C4886   1.404   1_564  A
C4881      H4888   1.085       .  S
C4882      C4883   1.410   1_554  A
C4883      C4884   1.389       .  A
C4883      C4890   1.511       .  S
C4884      C4885   1.397   1_565  A
C4884      H4889   1.085       .  S
C4885      C4886   1.411       .  A
C4886      C4887   1.505   1_556  S
C4887      H4891   1.110       .  S
C4887      H4892   1.111       .  S
C4887      H4893   1.108   1_554  S
C4890      H4894   1.110       .  S
C4890      H4895   1.109       .  S
C4890      H4896   1.111       .  S
C4897      C4898   1.393       .  A
C4897      C4902   1.410       .  A
C4897      H4904   1.084       .  S
C4898      C4899   1.435       .  A
C4899      C4900   1.414       .  A
C4899      C4906   1.510       .  S
C4900      C4901   1.397       .  A
C4900      H4905   1.084       .  S
C4901      C4902   1.439       .  A
C4902      C4903   1.512       .  S
C4903      H4907   1.111       .  S
C4903      H4908   1.110       .  S
C4903      H4909   1.110       .  S
C4906      H4910   1.108       .  S
C4906      H4911   1.110       .  S
C4906      H4912   1.111       .  S
C4913      C4914   1.402       .  A
C4913      C4918   1.392       .  A
C4913      H4920   1.084       .  S
C4914      C4915   1.411       .  A
C4915      C4916   1.403       .  A
C4915      C4922   1.502       .  S
C4916      C4917   1.404       .  A
C4916      H4921   1.084       .  S
C4917      C4918   1.416       .  A
C4918      C4919   1.511       .  S
C4919      H4923   1.111       .  S
C4919      H4924   1.109       .  S
C4919      H4925   1.111       .  S
C4922      H4926   1.110       .  S
C4922      H4927   1.108       .  S
C4922      H4928   1.111       .  S
C4929      C4930   1.400       .  A
C4929      C4934   1.416       .  A
C4929      H4936   1.084       .  S
C4930      C4931   1.439       .  A
C4931      C4932   1.409       .  A
C4931      C4938   1.508       .  S
C4932      C4933   1.392       .  A
C4932      H4937   1.084       .  S
C4933      C4934   1.431       .  A
C4934      C4935   1.508       .  S
C4935      H4939   1.111       .  S
C4935      H4940   1.111       .  S
C4935      H4941   1.109       .  S
C4938      H4942   1.110       .  S
C4938      H4943   1.107       .  S
C4938      H4944   1.111       .  S
C4945      C4946   1.393       .  A
C4945      C4950   1.409   1_556  A
C4945      H4952   1.084       .  S
C4946      C4947   1.434   1_556  A
C4947      C4948   1.409       .  A
C4947      C4954   1.511   1_554  S
C4948      C4949   1.394       .  A
C4948      H4953   1.084       .  S
C4949      C4950   1.438       .  A
C4950      C4951   1.511       .  S
C4951      H4955   1.111       .  S
C4951      H4956   1.108       .  S
C4951      H4957   1.111       .  S
C4954      H4958   1.109       .  S
C4954      H4959   1.111       .  S
C4954      H4960   1.111   1_556  S
C4961      C4962   1.404       .  A
C4961      C4966   1.398       .  A
C4961      H4968   1.084       .  S
C4962      C4963   1.417       .  A
C4963      C4964   1.404   1_556  A
C4963      C4970   1.507   1_556  S
C4964      C4965   1.404       .  A
C4964      H4969   1.084       .  S
C4965      C4966   1.414   1_554  A
C4966      C4967   1.510       .  S
C4967      H4971   1.111       .  S
C4967      H4972   1.109       .  S
C4967      H4973   1.110   1_556  S
C4970      H4974   1.110   1_554  S
C4970      H4975   1.110       .  S
C4970      H4976   1.111       .  S
C4977      C4978   1.417       .  A
C4977      C4982   1.422       .  A
C4977      H4984   1.084       .  S
C4978      C4979   1.409       .  A
C4979      C4980   1.407       .  A
C4979      C4986   1.508       .  S
C4980      C4981   1.414       .  A
C4980      H4985   1.083       .  S
C4981      C4982   1.411       .  A
C4982      C4983   1.503       .  S
C4983      H4987   1.111       .  S
C4983      H4988   1.110       .  S
C4983      H4989   1.111       .  S
C4986      H4990   1.106       .  S
C4986      H4991   1.110       .  S
C4986      H4992   1.110       .  S
C4993      C4994   1.411       .  A
C4993      C4998   1.414   1_565  A
C4993      H5000   1.084       .  S
C4994      C4995   1.408       .  A
C4995      C4996   1.408   1_565  A
C4995      C5002   1.506       .  S
C4996      C4997   1.412       .  A
C4996      H5001   1.085       .  S
C4997      C4998   1.410       .  A
C4998      C4999   1.504       .  S
C4999      H5003   1.111       .  S
C4999      H5004   1.111       .  S
C4999      H5005   1.110       .  S
C5002      H5006   1.110       .  S
C5002      H5007   1.111       .  S
C5002      H5008   1.111       .  S
C5009      C5010   1.420       .  A
C5009      C5014   1.412   1_556  A
C5009      H5016   1.084       .  S
C5010      C5011   1.406       .  A
C5011      C5012   1.411   1_556  A
C5011      C5018   1.506       .  S
C5012      C5013   1.423       .  A
C5012      H5017   1.083       .  S
C5013      C5014   1.408       .  A
C5014      C5015   1.505       .  S
C5015      H5019   1.111       .  S
C5015      H5020   1.110       .  S
C5015      H5021   1.110       .  S
C5018      H5022   1.110       .  S
C5018      H5023   1.110       .  S
C5018      H5024   1.111       .  S
C5025      C5026   1.401       .  A
C5025      C5030   1.387       .  A
C5025      H5032   1.085       .  S
C5026      C5027   1.407       .  A
C5027      C5028   1.406   1_556  A
C5027      C5034   1.505   1_556  S
C5028      C5029   1.407       .  A
C5028      H5033   1.085       .  S
C5029      C5030   1.413   1_554  A
C5030      C5031   1.512       .  S
C5031      H5035   1.111       .  S
C5031      H5036   1.109       .  S
C5031      H5037   1.110       .  S
C5034      H5038   1.110       .  S
C5034      H5039   1.110       .  S
C5034      H5040   1.111       .  S
C5041      C5042   1.405   1_545  A
C5041      C5046   1.405   1_545  A
C5041      H5048   1.084       .  S
C5042      C5043   1.416       .  A
C5043      C5044   1.389       .  A
C5043      C5050   1.512       .  S
C5044      C5045   1.400       .  A
C5044      H5049   1.085       .  S
C5045      C5046   1.411       .  A
C5046      C5047   1.506       .  S
C5047      H5051   1.111   1_565  S
C5047      H5052   1.110       .  S
C5047      H5053   1.110       .  S
C5050      H5054   1.111       .  S
C5050      H5055   1.109       .  S
C5050      H5056   1.111       .  S
C5057      C5058   1.401       .  A
C5057      C5062   1.403       .  A
C5057      H5064   1.084       .  S
C5058      C5059   1.413       .  A
C5059      C5060   1.383       .  A
C5059      C5066   1.513       .  S
C5060      C5061   1.395       .  A
C5060      H5065   1.085       .  S
C5061      C5062   1.406       .  A
C5062      C5063   1.501       .  S
C5063      H5067   1.111       .  S
C5063      H5068   1.110       .  S
C5063      H5069   1.107       .  S
C5066      H5070   1.109       .  S
C5066      H5071   1.110       .  S
C5066      H5072   1.111       .  S
C5073      C5074   1.393       .  A
C5073      C5078   1.410       .  A
C5073      H5080   1.084       .  S
C5074      C5075   1.426       .  A
C5075      C5076   1.417       .  A
C5075      C5082   1.508       .  S
C5076      C5077   1.402       .  A
C5076      H5081   1.084       .  S
C5077      C5078   1.436       .  A
C5078      C5079   1.510       .  S
C5079      H5083   1.111       .  S
C5079      H5084   1.109       .  S
C5079      H5085   1.109       .  S
C5082      H5086   1.108       .  S
C5082      H5087   1.110       .  S
C5082      H5088   1.111       .  S
C5089      C5090   1.414       .  A
C5089      C5094   1.410       .  A
C5089      H5096   1.085       .  S
C5090      C5091   1.411       .  A
C5091      C5092   1.414       .  A
C5091      C5098   1.504       .  S
C5092      C5093   1.412       .  A
C5092      H5097   1.084       .  S
C5093      C5094   1.409       .  A
C5094      C5095   1.506       .  S
C5095      H5099   1.111       .  S
C5095      H5100   1.111       .  S
C5095      H5101   1.110       .  S
C5098      H5102   1.109       .  S
C5098      H5103   1.111       .  S
C5098      H5104   1.111       .  S
C5105      C5106   1.403       .  A
C5105      C5110   1.410       .  A
C5105      H5112   1.084       .  S
C5106      C5107   1.418       .  A
C5107      C5108   1.417       .  A
C5107      C5114   1.505       .  S
C5108      C5109   1.405       .  A
C5108      H5113   1.084       .  S
C5109      C5110   1.418       .  A
C5110      C5111   1.508       .  S
C5111      H5115   1.111       .  S
C5111      H5116   1.109       .  S
C5111      H5117   1.110       .  S
C5114      H5118   1.110       .  S
C5114      H5119   1.110       .  S
C5114      H5120   1.111       .  S
C5121      C5122   1.404       .  A
C5121      C5126   1.416       .  A
C5121      H5128   1.084       .  S
C5122      C5123   1.423       .  A
C5123      C5124   1.409       .  A
C5123      C5130   1.510       .  S
C5124      C5125   1.399       .  A
C5124      H5129   1.084       .  S
C5125      C5126   1.420       .  A
C5126      C5127   1.506       .  S
C5127      H5131   1.111       .  S
C5127      H5132   1.110       .  S
C5127      H5133   1.110       .  S
C5130      H5134   1.110       .  S
C5130      H5135   1.107       .  S
C5130      H5136   1.111       .  S
C5137      C5138   1.402       .  A
C5137      C5142   1.405       .  A
C5137      H5144   1.084       .  S
C5138      C5139   1.416       .  A
C5139      C5140   1.383       .  A
C5139      C5146   1.514       .  S
C5140      C5141   1.395       .  A
C5140      H5145   1.085       .  S
C5141      C5142   1.411       .  A
C5142      C5143   1.505       .  S
C5143      H5147   1.111       .  S
C5143      H5148   1.109       .  S
C5143      H5149   1.110       .  S
C5146      H5150   1.110       .  S
C5146      H5151   1.109       .  S
C5146      H5152   1.111       .  S
C5153      C5154   1.404       .  A
C5153      C5158   1.396       .  A
C5153      H5160   1.084       .  S
C5154      C5155   1.417       .  A
C5155      C5156   1.406       .  A
C5155      C5162   1.507       .  S
C5156      C5157   1.406       .  A
C5156      H5161   1.083       .  S
C5157      C5158   1.418       .  A
C5158      C5159   1.512       .  S
C5159      H5163   1.111       .  S
C5159      H5164   1.110       .  S
C5159      H5165   1.110       .  S
C5162      H5166   1.109       .  S
C5162      H5167   1.110       .  S
C5162      H5168   1.111       .  S
C5169      C5170   1.401       .  A
C5169      C5174   1.415   1_565  A
C5169      H5176   1.084       .  S
C5170      C5171   1.432       .  A
C5171      C5172   1.408   1_565  A
C5171      C5178   1.511       .  S
C5172      C5173   1.394       .  A
C5172      H5177   1.084       .  S
C5173      C5174   1.425       .  A
C5174      C5175   1.508       .  S
C5175      H5179   1.111       .  S
C5175      H5180   1.110       .  S
C5175      H5181   1.109       .  S
C5178      H5182   1.108       .  S
C5178      H5183   1.110       .  S
C5178      H5184   1.111   1_565  S
C5185      C5186   1.401       .  A
C5185      C5190   1.403   1_565  A
C5185      H5192   1.084       .  S
C5186      C5187   1.411       .  A
C5187      C5188   1.390       .  A
C5187      C5194   1.511       .  S
C5188      C5189   1.397   1_565  A
C5188      H5193   1.085       .  S
C5189      C5190   1.408       .  A
C5190      C5191   1.505       .  S
C5191      H5195   1.111       .  S
C5191      H5196   1.110       .  S
C5191      H5197   1.111       .  S
C5194      H5198   1.111       .  S
C5194      H5199   1.109       .  S
C5194      H5200   1.111       .  S
C5201      C5202   1.402       .  A
C5201      C5206   1.397       .  A
C5201      H5208   1.084       .  S
C5202      C5203   1.417       .  A
C5203      C5204   1.402       .  A
C5203      C5210   1.508       .  S
C5204      C5205   1.403       .  A
C5204      H5209   1.084       .  S
C5205      C5206   1.416       .  A
C5206      C5207   1.510       .  S
C5207      H5211   1.111       .  S
C5207      H5212   1.109       .  S
C5207      H5213   1.110       .  S
C5210      H5214   1.110       .  S
C5210      H5215   1.110       .  S
C5210      H5216   1.111       .  S
C5217      C5218   1.406       .  A
C5217      C5222   1.417       .  A
C5217      H5224   1.084       .  S
C5218      C5219   1.418       .  A
C5219      C5220   1.410       .  A
C5219      C5226   1.508       .  S
C5220      C5221   1.403       .  A
C5220      H5225   1.084       .  S
C5221      C5222   1.417       .  A
C5222      C5223   1.505       .  S
C5223      H5227   1.111       .  S
C5223      H5228   1.110       .  S
C5223      H5229   1.110       .  S
C5226      H5230   1.110       .  S
C5226      H5231   1.110       .  S
C5226      H5232   1.111       .  S
