geometry optimzed in LAMMPS
_audit_creation_date              2020-12-01 
_audit_creation_method            'lammps2cif' 
_symmetry_space_group_name_H-M    'P1' 
_symmetry_Int_Tables_number       1 
_symmetry_cell_setting            triclinic 
loop_ 
_symmetry_equiv_pos_as_xyz 
  x,y,z 
_cell_length_a                    33.76755669 
_cell_length_b                    33.785758323915616 
_cell_length_c                    34.00319213358664 
_cell_angle_alpha                 89.98810810025537 
_cell_angle_beta                  89.87022365128541 
_cell_angle_gamma                 89.84470278419127 
loop_ 
_atom_site_label 
_atom_site_type_symbol 
_atom_site_fract_x 
_atom_site_fract_y 
_atom_site_fract_z 
_atom_site_charge 
C1          C  0.81979147  0.30374409  0.47081200     0.79700
N2          N  0.80584440  0.28989156  0.50540140    -0.78600
C3          C  0.81917931  0.30385024  0.54003550     0.82200
N4          N  0.84734649  0.33255660  0.54048320    -0.78500
C5          C  0.86218200  0.34661967  0.50585459     0.82300
N6          N  0.84828272  0.33222019  0.47102053    -0.80300
C7          C  0.50239501  0.80931856  0.35172406     0.79700
N8          N  0.50106319  0.83609756  0.38150443    -0.78600
C9          C  0.46538175  0.84801891  0.39621671     0.82200
N10         N  0.43122942  0.83226512  0.38155083    -0.78500
C11         C  0.43303441  0.80542264  0.35165803     0.82300
N12         N  0.46855126  0.79440438  0.33709750    -0.80300
C13         C  0.32409749  0.41172108  0.85462866     0.79700
N14         N  0.35314589  0.41290151  0.88229646    -0.78600
C15         C  0.36673411  0.44855898  0.89548583     0.82200
N16         N  0.35106136  0.48286265  0.88084935    -0.78500
C17         C  0.32190342  0.48131408  0.85323050     0.82300
N18         N  0.30906788  0.44587916  0.84071089    -0.80300
C19         C  0.11224522  0.30548917  0.03635693     0.79700
N20         N  0.08392677  0.33422495  0.03598610    -0.78600
C21         C  0.06981015  0.34804233  0.00094609     0.82200
N22         N  0.08412165  0.33286761  0.96639955    -0.78500
C23         C  0.11240651  0.30397433  0.96705739     0.82300
N24         N  0.12578627  0.29093740  0.00201189    -0.80300
C25         C  0.32475754  0.91581770  0.14856206     0.79700
N26         N  0.30998070  0.95020332  0.16232033    -0.78600
C27         C  0.32222109  0.98530881  0.14799745     0.82200
N28         N  0.35014824  0.98623364  0.11901035    -0.78500
C29         C  0.36580100  0.95162936  0.10501713     0.82300
N30         N  0.35263198  0.91631471  0.11955362    -0.80300
C31         C  0.82204775  0.59545850  0.46158109     0.79700
N32         N  0.85080413  0.56710304  0.46129487    -0.78600
C33         C  0.86560788  0.55329034  0.49608668     0.82200
N34         N  0.85085992  0.56747935  0.53082887    -0.78500
C35         C  0.82175197  0.59555727  0.53086334     0.82300
N36         N  0.80799884  0.60908470  0.49614100    -0.80300
C37         C  0.11510415  0.59775468  0.03130047     0.79700
N38         N  0.12859181  0.61045303  0.99606801    -0.78600
C39         C  0.11369623  0.59660200  0.96201310     0.82200
N40         N  0.08440773  0.56900904  0.96279070    -0.78500
C41         C  0.07061568  0.55534361  0.99803922     0.82300
N42         N  0.08592565  0.56991163  0.03226163    -0.80300
N43         N  0.96677904  0.51322427  0.00192787    -0.37100
N44         N  0.02815191  0.45184942  0.00028548    -0.57700
N45         N  0.96623910  0.39058214  0.99999824    -0.37100
N46         N  0.90474580  0.45198321  0.00490525    -0.57700
C47         C  0.99932712  0.53662507  0.00308161     0.26500
C48         C  0.93443957  0.53675499  0.00546368     0.26500
C49         C  0.99884771  0.36791630  0.00616678     0.26500
C50         C  0.93398266  0.36797295  0.00761253     0.26500
C51         C  0.05180296  0.48396177  0.99631109     0.35100
C52         C  0.05151374  0.41943952  0.99635297     0.35100
C53         C  0.88125359  0.48445884  0.00211362     0.35100
C54         C  0.88106172  0.41985524  0.00127060     0.35100
C55         C  0.98740772  0.57572639  0.00733455    -0.22400
C56         C  0.94666597  0.57582398  0.00882053    -0.22400
C57         C  0.98705684  0.33022608  0.01735731    -0.22400
C58         C  0.94629377  0.33025065  0.01821608    -0.22400
C59         C  0.09058447  0.47176781  0.99024486    -0.23500
C60         C  0.09039739  0.43105869  0.99024657    -0.23500
C61         C  0.84218463  0.47276872  0.99738354    -0.23500
C62         C  0.84207880  0.43200564  0.99677576    -0.23500
C63         C  0.03944844  0.52416569  0.99917707    -0.18800
C64         C  0.89415942  0.52454201  0.00415541    -0.18800
C65         C  0.89373661  0.37973015  0.00371298    -0.18800
C66         C  0.03891638  0.37955466  0.00052433    -0.18800
H67         H  0.00607331  0.60167727  0.00874562     0.14100
H68         H  0.92818185  0.60190771  0.01156953     0.14100
H69         H  0.00583340  0.30512058  0.02406602     0.14100
H70         H  0.92786311  0.30520167  0.02575874     0.14100
H71         H  0.11644352  0.49025187  0.98644767     0.12400
H72         H  0.11610765  0.41219495  0.98665475     0.12400
H73         H  0.81638551  0.49163068  0.99454475     0.12400
H74         H  0.81618903  0.41345987  0.99361628     0.12400
H75         H  0.96649527  0.48300734  0.99778976     0.25700
H76         H  0.96597136  0.41921460  0.98913332     0.25600
C77         C  0.61604634  0.91879696  0.14404289     0.79700
N78         N  0.58819543  0.91865845  0.11512987    -0.78600
C79         C  0.57392274  0.95369377  0.10076690     0.82200
N80         N  0.58813890  0.98865191  0.11520806    -0.78500
C81         C  0.61611094  0.98828097  0.14408060     0.82300
N82         N  0.62942756  0.95345035  0.15815847    -0.80300
N83         N  0.40651286  0.94754857  0.00186438    -0.37100
N84         N  0.46645065  0.94674251  0.93953677    -0.57700
N85         N  0.52917722  0.94858632  0.99922003    -0.37100
N86         N  0.46909586  0.95346831  0.06145628    -0.57700
C87         C  0.38320949  0.95312422  0.96989830     0.26500
C88         C  0.38452743  0.95599490  0.03420496     0.26500
C89         C  0.55102121  0.95403497  0.96616403     0.26500
C90         C  0.55247973  0.95709909  0.03051936     0.26500
C91         C  0.43378595  0.94075759  0.91724900     0.35100
C92         C  0.49828818  0.94116919  0.91584228     0.35100
C93         C  0.43731466  0.94895542  0.08549466     0.35100
C94         C  0.50189871  0.94965906  0.08411515     0.35100
C95         C  0.34577941  0.96490266  0.98218738    -0.22400
C96         C  0.34660576  0.96668474  0.02263691    -0.22400
C97         C  0.58890067  0.96580997  0.97668014    -0.22400
C98         C  0.58981547  0.96771249  0.01715991    -0.22400
C99         C  0.44497326  0.93186066  0.87899047    -0.23500
C100        C  0.48569227  0.93213177  0.87809277    -0.23500
C101        C  0.45005162  0.94296106  0.12377872    -0.23500
C102        C  0.49080730  0.94342486  0.12291455    -0.23500
C103        C  0.39405323  0.94590215  0.93014082    -0.18800
C104        C  0.39697766  0.95222284  0.07389626    -0.18800
C105        C  0.54168430  0.95357293  0.07079301    -0.18800
C106        C  0.53844435  0.94679261  0.92693593    -0.18800
H107        H  0.32028079  0.97119946  0.96399251     0.14100
H108        H  0.32189919  0.97467674  0.04137177     0.14100
H109        H  0.61355517  0.97204342  0.95727392     0.14100
H110        H  0.61524204  0.97574347  0.03473396     0.14100
H111        H  0.42583402  0.92638234  0.85410065     0.12400
H112        H  0.50388468  0.92688717  0.85235952     0.12400
H113        H  0.43188796  0.93901080  0.14974439     0.12400
H114        H  0.51005006  0.93986135  0.14809126     0.12400
H115        H  0.43507980  0.93637899  0.00179847     0.25700
H116        H  0.50064932  0.93755503  0.00043217     0.25600
C117        C  0.82082039  0.30544657  0.96770414     0.79700
N118        N  0.84910527  0.33412083  0.96804198    -0.78600
C119        C  0.86312864  0.34800217  0.00308745     0.82200
N120        N  0.84929460  0.33236665  0.03749508    -0.78500
C121        C  0.82098798  0.30375171  0.03669201     0.82300
N122        N  0.80700597  0.29079301  0.00191186    -0.80300
O123        O  0.71616648  0.68368874  0.17226710    -0.82300
C124        C  0.74136586  0.66711292  0.33027829     0.97000
O125        O  0.73588209  0.64685216  0.29977867    -0.71400
O126        O  0.71921284  0.62603662  0.22690227    -0.75000
Al127      Al  0.75313739  0.66584992  0.25082813     1.49000
C128        C  0.68204156  0.62487876  0.22114488     0.92300
O129        O  0.63953052  0.72827421  0.24518652    -0.81200
O130        O  0.69636409  0.78283971  0.25441079    -0.74800
Al131      Al  0.68158726  0.70561674  0.21261949     1.90100
O132        O  0.66577747  0.72562004  0.30404814    -0.73900
O133        O  0.76815455  0.75712487  0.27539399    -0.73700
O134        O  0.73697001  0.70455075  0.32903021    -0.79400
O135        O  0.79447188  0.69780106  0.27497437    -0.77600
O136        O  0.71719610  0.70378201  0.25047249    -1.13700
O137        O  0.77363479  0.68141841  0.20194926    -0.72900
C138        C  0.75344527  0.67835719  0.17107973     0.97800
C139        C  0.63641472  0.73201751  0.28227708     0.94200
Al140      Al  0.71678932  0.73988857  0.28795091     1.55600
O141        O  0.66142584  0.65564333  0.22556361    -0.77500
C142        C  0.79749189  0.73475984  0.28125347     0.98400
C143        C  0.69291628  0.78545264  0.21717236     0.93300
O144        O  0.69867705  0.75546241  0.19610888    -0.82800
C145        C  0.61064441  0.41776886  0.14987379     0.79700
N146        N  0.62328933  0.45280271  0.16370850    -0.78600
C147        C  0.61015073  0.48748901  0.14926837     0.82200
N148        N  0.58274887  0.48730151  0.11990920    -0.78500
C149        C  0.56916845  0.45207943  0.10552631     0.82300
N150        N  0.58331809  0.41727497  0.12048915    -0.80300
O151        O  0.66342508  0.25227894  0.23023321    -0.82300
C152        C  0.79855839  0.16813106  0.28051818     0.97000
O153        O  0.79644469  0.20523644  0.27476770    -0.71400
O154        O  0.77395442  0.22369318  0.20257787    -0.75000
Al155      Al  0.75547329  0.23897799  0.25249360     1.49000
C156        C  0.75285612  0.22800405  0.17243398     0.92300
O157        O  0.69689457  0.15188009  0.19795167    -0.81200
O158        O  0.66746497  0.18057143  0.30728017    -0.74800
Al159      Al  0.68176801  0.20209046  0.21575387     1.90100
O160        O  0.69595185  0.12387519  0.25596350    -0.73900
O161        O  0.73985122  0.19914400  0.33040919    -0.73700
O162        O  0.76845876  0.14688320  0.27521140    -0.79400
O163        O  0.74091345  0.25765199  0.30261900    -0.77600
O164        O  0.71840887  0.20219897  0.25265064    -1.13700
O165        O  0.72174593  0.28030125  0.23014107    -0.72900
C166        C  0.68452594  0.28242262  0.22489140     0.97800
C167        C  0.69115747  0.12177778  0.21892248     0.94200
Al168      Al  0.71797641  0.16538939  0.28948151     1.55600
O169        O  0.71556115  0.22366145  0.17469915    -0.77500
C170        C  0.74562541  0.23623957  0.33261393     0.98400
C171        C  0.63760659  0.17524400  0.28585788     0.93300
O172        O  0.64023007  0.18035281  0.24894286    -0.82800
C173        C  0.50308637  0.09772503  0.35608182     0.79700
N174        N  0.46866163  0.10987306  0.34016242    -0.78600
C175        C  0.43362849  0.09550159  0.35250994     0.82200
N176        N  0.43289130  0.06808293  0.38197209    -0.78500
C177        C  0.46758888  0.05513594  0.39826028     0.82300
N178        N  0.50276051  0.07016509  0.38527804    -0.80300
C179        C  0.93276907  0.09854676  0.64649616     0.79700
N180        N  0.96754299  0.11425877  0.65790434    -0.78600
C181        C  0.00220717  0.10035598  0.64383458     0.82200
N182        N  0.00229759  0.07000167  0.61748613    -0.78500
C183        C  0.96727542  0.05431380  0.60503068     0.82300
N184        N  0.93244013  0.06826201  0.62010753    -0.80300
N185        N  0.96707811  0.88858126  0.50280233    -0.37100
N186        N  0.96975442  0.94921969  0.44132199    -0.57700
N187        N  0.96533529  0.01112438  0.50246710    -0.37100
N188        N  0.96646412  0.95058343  0.56389466    -0.57700
C189        C  0.97156036  0.86494607  0.47079510     0.26500
C190        C  0.96996286  0.86564038  0.53541470     0.26500
C191        C  0.97235933  0.03351211  0.47011993     0.26500
C192        C  0.97176840  0.03409296  0.53456886     0.26500
C193        C  0.96716360  0.91689648  0.41788750     0.35100
C194        C  0.96585374  0.98134139  0.41782591     0.35100
C195        C  0.96283067  0.91851140  0.58743583     0.35100
C196        C  0.96280857  0.98289050  0.58719124     0.35100
C197        C  0.97688145  0.82621586  0.48333936    -0.22400
C198        C  0.97589515  0.82664810  0.52389333    -0.22400
C199        C  0.98272055  0.07143177  0.48185008    -0.22400
C200        C  0.98238530  0.07178572  0.52233589    -0.22400
C201        C  0.96225132  0.92866420  0.37911820    -0.23500
C202        C  0.96133862  0.96935577  0.37909285    -0.23500
C203        C  0.95723610  0.93062137  0.62607144    -0.23500
C204        C  0.95719948  0.97128079  0.62589685    -0.23500
C205        C  0.96984738  0.87688206  0.43058268    -0.18800
C206        C  0.96638862  0.87844111  0.57525831    -0.18800
C207        C  0.96694252  0.02266196  0.57456378    -0.18800
C208        C  0.96831413  0.02135937  0.43028413    -0.18800
H209        H  0.98088885  0.80019427  0.46518165     0.14100
H210        H  0.97894084  0.80098794  0.54271754     0.14100
H211        H  0.98981725  0.09639945  0.46320222     0.14100
H212        H  0.98910955  0.09709548  0.54061982     0.14100
H213        H  0.95959106  0.90991017  0.35345842     0.12400
H214        H  0.95806583  0.98797993  0.35339086     0.12400
H215        H  0.95396248  0.91212816  0.65186655     0.12400
H216        H  0.95404111  0.99009592  0.65147987     0.12400
H217        H  0.96125490  0.91849091  0.50249929     0.25700
H218        H  0.95482361  0.98244173  0.50245363     0.25600
C219        C  0.11161053  0.29570903  0.53752249     0.79700
N220        N  0.08471328  0.32583957  0.53892260    -0.78600
C221        C  0.07011080  0.34142426  0.50482908     0.82200
N222        N  0.08355798  0.32756521  0.46951786    -0.78500
C223        C  0.11041603  0.29745772  0.46844417     0.82300
N224        N  0.12396036  0.28178243  0.50236322    -0.80300
C225        C  0.32041076  0.90903164  0.85746668     0.79700
N226        N  0.34900151  0.90956328  0.88563642    -0.78600
C227        C  0.36200873  0.94492800  0.90011595     0.82200
N228        N  0.34607619  0.97945747  0.88637462    -0.78500
C229        C  0.31746620  0.97853635  0.85820464     0.82300
N230        N  0.30528137  0.94336404  0.84408633    -0.80300
O231        O  0.23753016  0.14574810  0.80861753    -0.82300
C232        C  0.19325421  0.22936937  0.67125438     0.97000
O233        O  0.19729078  0.19207907  0.67428503    -0.71400
O234        O  0.26876542  0.17101863  0.69907391    -0.75000
Al235      Al  0.21751852  0.15860228  0.71648805     1.49000
C236        C  0.29832720  0.16510442  0.72085253     0.92300
O237        O  0.27482516  0.24485327  0.77520343    -0.81200
O238        O  0.16274071  0.22198326  0.80123523    -0.74800
Al239      Al  0.25435866  0.19533174  0.79003002     1.90100
O240        O  0.21724610  0.27458178  0.77260405    -0.73900
O241        O  0.14031324  0.20215332  0.72908602    -0.73700
O242        O  0.19898639  0.25105016  0.70077473    -0.79400
O243        O  0.16632363  0.14273836  0.73075548    -0.77600
O244        O  0.21815026  0.19618291  0.75254653    -1.13700
O245        O  0.23746897  0.11719395  0.75088575    -0.72900
C246        C  0.24214936  0.11520984  0.78787780     0.97800
C247        C  0.25425210  0.27576132  0.77896510     0.94200
Al248      Al  0.18255520  0.23455150  0.75104749     1.55600
O249        O  0.29554944  0.17117075  0.75764542    -0.77500
C250        C  0.13703382  0.16495198  0.72456561     0.98400
C251        C  0.18361358  0.22633782  0.83159032     0.93300
O252        O  0.22055742  0.21928358  0.83004805    -0.82800
C253        C  0.43507506  0.08948717  0.65086278     0.79700
N254        N  0.43616689  0.06361354  0.62024124    -0.78600
C255        C  0.47165085  0.05177143  0.60497634     0.82200
N256        N  0.50606891  0.06602464  0.62048908    -0.78500
C257        C  0.50470169  0.09156485  0.65149370     0.82300
N258        N  0.46932649  0.10293531  0.66608669    -0.80300
O259        O  0.63900686  0.17850165  0.75750926    -0.82300
C260        C  0.79833658  0.16338127  0.72852205     0.97000
O261        O  0.76780213  0.14256368  0.73272836    -0.71400
O262        O  0.69484075  0.12119562  0.75112114    -0.75000
Al263      Al  0.71785497  0.16233423  0.71825631     1.49000
C264        C  0.68884826  0.11866864  0.78796858     0.92300
O265        O  0.71407050  0.22065969  0.83348066    -0.81200
O266        O  0.72351695  0.27655426  0.77830717    -0.74800
Al267      Al  0.68050954  0.19955887  0.79163879     1.90100
O268        O  0.77309209  0.21832950  0.80658852    -0.73900
O269        O  0.74260340  0.25407459  0.70664626    -0.73700
O270        O  0.79672915  0.20042962  0.73454668    -0.79400
O271        O  0.74060047  0.19614732  0.67769668    -0.77600
O272        O  0.71821159  0.19873721  0.75547891    -1.13700
O273        O  0.66809912  0.17855308  0.70005143    -0.72900
C274        C  0.63754272  0.17326890  0.72049100     0.97800
C275        C  0.75144626  0.22451367  0.83614812     0.94200
Al276      Al  0.75615164  0.23457271  0.75648076     1.55600
O277        O  0.69349453  0.14854471  0.80961474    -0.77500
C278        C  0.74607146  0.23333616  0.67610978     0.98400
C279        C  0.68627791  0.28007560  0.78230998     0.93300
O280        O  0.66411706  0.25065448  0.77686109    -0.82800
C281        C  0.62019324  0.48560568  0.86206979     0.79700
N282        N  0.63598742  0.45123929  0.84935802    -0.78600
C283        C  0.62143770  0.41616923  0.86128982     0.82200
N284        N  0.59033010  0.41519973  0.88677083    -0.78500
C285        C  0.57438547  0.44971541  0.90039931     0.82300
N286        N  0.58900161  0.48507154  0.88751394    -0.80300
O287        O  0.77307296  0.67570676  0.80073122    -0.82300
C288        C  0.63922208  0.72475820  0.71428540     0.97000
O289        O  0.64050292  0.71936522  0.75126636    -0.71400
O290        O  0.66372040  0.64703848  0.77019957    -0.75000
Al291      Al  0.68113513  0.69736074  0.78548449     1.49000
C292        C  0.68512028  0.61723714  0.77664210     0.92300
O293        O  0.74332133  0.64252796  0.69979801    -0.81200
O294        O  0.76903214  0.75312903  0.72917006    -0.74800
Al295      Al  0.75631087  0.66086778  0.75031493     1.90100
O296        O  0.74299786  0.70118365  0.67224927    -0.73900
O297        O  0.69606926  0.77582819  0.74597575    -0.73700
O298        O  0.66977296  0.71943753  0.69368886    -0.79400
O299        O  0.69513544  0.74773280  0.80401860    -0.77600
O300        O  0.71894740  0.69756106  0.74955226    -1.13700
O301        O  0.71395310  0.67544123  0.82729159    -0.72900
C302        C  0.75114726  0.67055978  0.83025511     0.97800
C303        C  0.74829816  0.66397348  0.66989557     0.94200
Al304      Al  0.71949138  0.73459799  0.71298746     1.55600
O305        O  0.72240920  0.61935949  0.77163109    -0.77500
C306        C  0.69015406  0.77789100  0.78287333     0.98400
C307        C  0.79970796  0.73230260  0.72520776     0.93300
O308        O  0.79782369  0.69498842  0.72960038    -0.82800
C309        C  0.43666572  0.80249209  0.64610780     0.79700
N310        N  0.47187095  0.79121475  0.66097594    -0.78600
C311        C  0.50608741  0.80584192  0.64676968     0.82200
N312        N  0.50537880  0.83282423  0.61706893    -0.78500
C313        C  0.46993051  0.84521285  0.60221070     0.82300
N314        N  0.43549441  0.82968938  0.61654161    -0.80300
O315        O  0.22229313  0.67250926  0.82338250    -0.82300
C316        C  0.19310224  0.66341463  0.66513134     0.97000
O317        O  0.19610700  0.64193589  0.69524521    -0.71400
O318        O  0.21409791  0.61749851  0.76731346    -0.75000
Al319      Al  0.18197169  0.66057933  0.74538932     1.49000
C320        C  0.25133129  0.61435811  0.77230958     0.92300
O321        O  0.29951257  0.71539194  0.75037342    -0.81200
O322        O  0.24539080  0.77315242  0.74348595    -0.74800
Al323      Al  0.25692304  0.69409741  0.78265439     1.90100
O324        O  0.27304984  0.71598650  0.69183211    -0.73900
O325        O  0.17315014  0.75337976  0.72261945    -0.73700
O326        O  0.20032689  0.70022187  0.66749620    -0.79400
O327        O  0.14236531  0.69642043  0.72354589    -0.77600
O328        O  0.22041446  0.69595424  0.74571849    -1.13700
O329        O  0.16391071  0.67569955  0.79568807    -0.72900
C330        C  0.18484364  0.66939543  0.82564685     0.97800
C331        C  0.30273775  0.72085526  0.71357567     0.94200
Al332      Al  0.22280656  0.73287276  0.70907383     1.55600
O333        O  0.27328323  0.64380490  0.76656260    -0.77500
C334        C  0.14197328  0.73371034  0.71821284     0.98400
C335        C  0.24949589  0.77486245  0.78064692     0.93300
O336        O  0.24355530  0.74454744  0.80138774    -0.82800
C337        C  0.00306900  0.80138743  0.35708284     0.79700
N338        N  0.96785318  0.78715799  0.34514938    -0.78600
C339        C  0.93348543  0.80137341  0.35956978     0.82200
N340        N  0.93409627  0.83068119  0.38702766    -0.78500
C341        C  0.96942637  0.84531876  0.39986945     0.82300
N342        N  0.00405874  0.83095498  0.38441875    -0.80300
O343        O  0.16935202  0.75573903  0.27162924    -0.82300
C344        C  0.25158825  0.61896733  0.22201015     0.97000
O345        O  0.21424769  0.62192847  0.22580723    -0.71400
O346        O  0.19552156  0.64444525  0.29689912    -0.75000
Al347      Al  0.18104518  0.66367937  0.24766597     1.49000
C348        C  0.19055027  0.66446805  0.32750224     0.92300
O349        O  0.26922577  0.71960587  0.30393687    -0.81200
O350        O  0.24173629  0.74979426  0.19445690    -0.74800
Al351      Al  0.21921180  0.73595277  0.28596241     1.90100
O352        O  0.29744364  0.72059152  0.24596175    -0.73900
O353        O  0.22227567  0.67776724  0.17049332    -0.73700
O354        O  0.27319238  0.64882329  0.22700519    -0.79400
O355        O  0.16342469  0.67927118  0.19769728    -0.77600
O356        O  0.21860734  0.69975925  0.24851614    -1.13700
O357        O  0.14010213  0.69803310  0.26990324    -0.72900
C358        C  0.13865735  0.73519907  0.27592405     0.97800
C359        C  0.29958447  0.72475534  0.28308261     0.94200
Al360      Al  0.25588370  0.69931204  0.21215499     1.55600
O361        O  0.19610805  0.70173812  0.32659949    -0.77500
C362        C  0.18494978  0.67334944  0.16798703     0.98400
C363        C  0.24715488  0.77976787  0.21568624     0.93300
O364        O  0.24223465  0.77743736  0.25279776    -0.82800
C365        C  0.31985603  0.41289049  0.14197434     0.79700
N366        N  0.34850696  0.41394002  0.11376732    -0.78600
C367        C  0.36300078  0.44953968  0.10140685     0.82200
N368        N  0.34910050  0.48370675  0.11777508    -0.78500
C369        C  0.32069799  0.48234376  0.14618043     0.82300
N370        N  0.30635600  0.44696575  0.15763263    -0.80300
C371        C  0.11494352  0.59288073  0.46188005     0.79700
N372        N  0.12988212  0.60594978  0.49615494    -0.78600
C373        C  0.11795073  0.59079809  0.53081620     0.82200
N374        N  0.08983046  0.56195092  0.53140630    -0.78500
C375        C  0.07415989  0.54851200  0.49688581     0.82300
N376        N  0.08708543  0.56381860  0.46198589    -0.80300
C377        C  0.00407353  0.80576219  0.64840848     0.79700
N378        N  0.96993958  0.79314831  0.66453644    -0.78600
C379        C  0.93463049  0.80711419  0.65249253     0.82200
N380        N  0.93324312  0.83465281  0.62329976    -0.78500
C381        C  0.96759395  0.84792025  0.60669422     0.82300
N382        N  0.00315295  0.83357065  0.61947785    -0.80300
C383        C  0.60871151  0.91219660  0.84947810     0.79700
N384        N  0.58228133  0.91184409  0.87980180    -0.78600
C385        C  0.56892826  0.94673262  0.89525048     0.82200
N386        N  0.58300926  0.98169776  0.88093433    -0.78500
C387        C  0.60937391  0.98169838  0.85062103     0.82300
N388        N  0.62180770  0.94704019  0.83520242    -0.80300
C389        C  0.00205317  0.09734269  0.35861178     0.79700
N390        N  0.96713590  0.11166330  0.34592062    -0.78600
C391        C  0.93248325  0.09710597  0.35918274     0.82200
N392        N  0.93271009  0.06747291  0.38633566    -0.78500
C393        C  0.96790647  0.05269004  0.39962724     0.82300
N394        N  0.00269284  0.06740459  0.38536214    -0.80300
O395        O  0.29460593  0.17826145  0.24766556    -0.82300
C396        C  0.13562406  0.16601286  0.27805935     0.97000
O397        O  0.16580720  0.14529144  0.27147549    -0.71400
O398        O  0.23795179  0.12221597  0.25271542    -0.75000
Al399      Al  0.21582846  0.16301421  0.28691268     1.49000
C400        C  0.24299250  0.12065089  0.21566506     0.92300
O401        O  0.21908123  0.22369821  0.17381578    -0.81200
O402        O  0.21221482  0.27910620  0.22969623    -0.74800
Al403      Al  0.25300141  0.20113907  0.21438720     1.90100
O404        O  0.16048371  0.22329786  0.20166939    -0.73900
O405        O  0.19362512  0.25511152  0.30213365    -0.73700
O406        O  0.13739453  0.20340991  0.27378408    -0.79400
O407        O  0.19358277  0.19596570  0.32870396    -0.77600
O408        O  0.21590881  0.20059570  0.25104577    -1.13700
O409        O  0.26590371  0.17741429  0.30538627    -0.72900
C410        C  0.29631877  0.17230330  0.28461945     0.97800
C411        C  0.18183051  0.22893453  0.17177695     0.94200
Al412      Al  0.17873147  0.23751854  0.25179267     1.55600
O413        O  0.23839589  0.15127050  0.19520112    -0.77500
C414        C  0.18851342  0.23318059  0.33166645     0.98400
C415        C  0.24932643  0.28114669  0.22354467     0.93300
O416        O  0.27085726  0.25134158  0.22988377    -0.82800
C417        C  0.82289584  0.59950699  0.96662051     0.79700
N418        N  0.80953502  0.61547923  0.00041600    -0.78600
C419        C  0.82286737  0.60279923  0.03555616     0.82200
N420        N  0.85032885  0.57323837  0.03710221    -0.78500
C421        C  0.86367956  0.55635142  0.00304934     0.82300
N422        N  0.85007440  0.56976274  0.96771972    -0.80300
N423        N  0.46688299  0.44973240  0.06123227    -0.37100
N424        N  0.40667985  0.45136013  0.99906025    -0.57700
N425        N  0.46944048  0.44752946  0.93943057    -0.37100
N426        N  0.52959432  0.45028269  0.00180767    -0.57700
C427        C  0.43394530  0.45664179  0.08299718     0.26500
C428        C  0.49873373  0.45697358  0.08431409     0.26500
C429        C  0.43757877  0.45343861  0.91591950     0.26500
C430        C  0.50248127  0.45304834  0.91740251     0.26500
C431        C  0.38249029  0.44757980  0.03067557     0.35100
C432        C  0.38376773  0.44727604  0.96666362     0.35100
C433        C  0.55223263  0.44585747  0.03436902     0.35100
C434        C  0.55362482  0.44462884  0.97037345     0.35100
C435        C  0.44504229  0.46799794  0.12060347    -0.22400
C436        C  0.48579789  0.46832139  0.12139646    -0.22400
C437        C  0.45060142  0.46215677  0.87817799    -0.22400
C438        C  0.49142391  0.46196197  0.87911922    -0.22400
C439        C  0.34383998  0.44191519  0.01824285    -0.23500
C440        C  0.34463423  0.44177421  0.97783125    -0.23500
C441        C  0.59100911  0.43775012  0.02353597    -0.23500
C442        C  0.59190778  0.43699282  0.98311531    -0.23500
C443        C  0.39422853  0.45106261  0.07059998    -0.18800
C444        C  0.53905684  0.45151999  0.07363562    -0.18800
C445        C  0.54228505  0.44876269  0.93036537    -0.18800
C446        C  0.39713251  0.44982639  0.92709389    -0.18800
H447        H  0.42584411  0.47501346  0.14515253     0.14100
H448        H  0.50379894  0.47561483  0.14665723     0.14100
H449        H  0.43258572  0.46803194  0.85253274     0.14100
H450        H  0.51073554  0.46755228  0.85429456     0.14100
H451        H  0.31766273  0.43864624  0.03636965     0.12400
H452        H  0.31918937  0.43824090  0.95886232     0.12400
H453        H  0.61618335  0.43336623  0.04271152     0.12400
H454        H  0.61794585  0.43186017  0.96518768     0.12400
H455        H  0.46749802  0.43845864  0.03297152     0.25700
H456        H  0.46871626  0.43851527  0.96846203     0.25600
N457        N  0.47220574  0.01137032  0.50091822    -0.37100
N458        N  0.47085896  0.94909965  0.56150065    -0.57700
N459        N  0.46333477  0.88874369  0.49987196    -0.37100
N460        N  0.46522525  0.95101819  0.43921139    -0.57700
C461        C  0.47149765  0.03442618  0.53358177     0.26500
C462        C  0.46910507  0.03541375  0.46908225     0.26500
C463        C  0.46961534  0.86513333  0.53156254     0.26500
C464        C  0.46741646  0.86605036  0.46719906     0.26500
C465        C  0.47155415  0.98103494  0.58553607     0.35100
C466        C  0.46876752  0.91667512  0.58482723     0.35100
C467        C  0.46524945  0.98354962  0.41588054     0.35100
C468        C  0.46273737  0.91906956  0.41529312     0.35100
C469        C  0.46869215  0.07379608  0.52224283    -0.22400
C470        C  0.46724834  0.07441893  0.48175125    -0.22400
C471        C  0.47686766  0.82679008  0.51884698    -0.22400
C472        C  0.47552268  0.82736187  0.47841085    -0.22400
C473        C  0.47014623  0.96868079  0.62444735    -0.23500
C474        C  0.46832074  0.92809643  0.62398786    -0.23500
C475        C  0.46279641  0.97208435  0.37679109    -0.23500
C476        C  0.46114287  0.93143974  0.37642431    -0.23500
C477        C  0.47256994  0.02130969  0.57340363    -0.18800
C478        C  0.46739706  0.02353455  0.42890414    -0.18800
C479        C  0.46397725  0.87880351  0.42747125    -0.18800
C480        C  0.46876234  0.87677833  0.57171548    -0.18800
H481        H  0.46730393  0.09951149  0.54118354     0.14100
H482        H  0.46453640  0.10069928  0.46373251     0.14100
H483        H  0.48296449  0.80104278  0.53681534     0.14100
H484        H  0.48037728  0.80208936  0.45942749     0.14100
H485        H  0.47020725  0.98698295  0.65057209     0.12400
H486        H  0.46702746  0.90917432  0.64964993     0.12400
H487        H  0.46238398  0.99099793  0.35109697     0.12400
H488        H  0.45951076  0.91309059  0.35038680     0.12400
H489        H  0.47497096  0.98098587  0.50040622     0.25700
H490        H  0.45551868  0.91834598  0.50053217     0.25600
N491        N  0.96696306  0.38633666  0.50817287    -0.37100
N492        N  0.90622429  0.44907452  0.50125589    -0.57700
N493        N  0.96918633  0.50870764  0.49593026    -0.37100
N494        N  0.02996058  0.44594356  0.50193737    -0.57700
C495        C  0.93392943  0.36361482  0.50646902     0.26500
C496        C  0.99898102  0.36196500  0.50645422     0.26500
C497        C  0.93710522  0.53306281  0.49510821     0.26500
C498        C  0.00225969  0.53145522  0.49557450     0.26500
C499        C  0.88184377  0.41743277  0.50389156     0.35100
C500        C  0.88299015  0.48175112  0.49911236     0.35100
C501        C  0.05315415  0.41325633  0.50439260     0.35100
C502        C  0.05436079  0.47765198  0.50021409     0.35100
C503        C  0.94518155  0.32410181  0.50475335    -0.22400
C504        C  0.98597652  0.32306997  0.50470950    -0.22400
C505        C  0.95009066  0.57195660  0.49352156    -0.22400
C506        C  0.99093840  0.57095867  0.49382025    -0.22400
C507        C  0.84274826  0.43013741  0.50325274    -0.23500
C508        C  0.84346979  0.47068577  0.50028192    -0.23500
C509        C  0.09267106  0.42431553  0.50409808    -0.23500
C510        C  0.09343823  0.46491548  0.50153259    -0.23500
C511        C  0.89386185  0.37711340  0.50600025    -0.18800
C512        C  0.03963000  0.37344824  0.50597476    -0.18800
C513        C  0.04238265  0.51798851  0.49735148    -0.18800
C514        C  0.89644296  0.52153479  0.49632403    -0.18800
H515        H  0.92601128  0.29852135  0.50322506     0.14100
H516        H  0.00398088  0.29655641  0.50315475     0.14100
H517        H  0.93203437  0.59845921  0.49255086     0.14100
H518        H  0.01009263  0.59658953  0.49314152     0.14100
H519        H  0.81634965  0.41208291  0.50465171     0.12400
H520        H  0.81772586  0.48980307  0.49904646     0.12400
H521        H  0.11836521  0.40514064  0.50547017     0.12400
H522        H  0.11986047  0.48296253  0.50057938     0.12400
H523        H  0.96753104  0.41645377  0.51071502     0.25700
H524        H  0.96863055  0.47855970  0.49679007     0.25600
C525        C  0.07311830  0.17166702  0.31600119    -0.26800
C526        C  0.10048644  0.14715715  0.29651059    -0.14900
C527        C  0.09610824  0.10531237  0.29977087     0.35700
C528        C  0.06511926  0.08954691  0.32218503    -0.26300
C529        C  0.03814538  0.11428705  0.34142467    -0.15500
C530        C  0.04214797  0.15564371  0.33821479     0.36800
N531        N  0.01471718  0.18152026  0.35770084    -0.89800
H532        H  0.07611675  0.20357361  0.31481448     0.17900
H533        H  0.06133928  0.05771769  0.32352070     0.17900
N534        N  0.12192318  0.07785890  0.28026960    -0.88800
H535        H  0.00131344  0.19940889  0.33642499     0.35300
H536        H  0.03067813  0.19985499  0.37664469     0.40400
H537        H  0.15022123  0.07971652  0.29246404     0.40000
H538        H  0.12298452  0.08483766  0.25033319     0.34900
C539        C  0.26168414  0.37366112  0.16098715    -0.26800
C540        C  0.30303530  0.37595098  0.15757954    -0.14900
C541        C  0.32670959  0.34729891  0.17639106     0.35700
C542        C  0.30866418  0.31767783  0.19895827    -0.26300
C543        C  0.26713556  0.31579929  0.20325608    -0.15500
C544        C  0.24354479  0.34381557  0.18315732     0.36800
N545        N  0.20117964  0.34190599  0.18451509    -0.89800
H546        H  0.24325362  0.39583767  0.14691920     0.17900
H547        H  0.32740737  0.29594056  0.21322495     0.17900
N548        N  0.36906454  0.34846153  0.17434053    -0.88800
H549        H  0.19076603  0.33875069  0.15575704     0.35300
H550        H  0.19051689  0.36876676  0.19562883     0.40400
H551        H  0.37864487  0.37573330  0.18525259     0.40000
H552        H  0.37750646  0.34629107  0.14483102     0.34900
C553        C  0.15571592  0.66872146  0.39156773    -0.26800
C554        C  0.17305887  0.64479861  0.36250539    -0.14900
C555        C  0.16867878  0.60287572  0.36541912     0.35700
C556        C  0.14746910  0.58651557  0.39683961    -0.26300
C557        C  0.13046688  0.61069262  0.42560235    -0.15500
C558        C  0.13456836  0.65208758  0.42285820     0.36800
N559        N  0.11697641  0.67741019  0.45187905    -0.89800
H560        H  0.15776090  0.70067322  0.38970873     0.17900
H561        H  0.14537986  0.55460804  0.39948447     0.17900
N562        N  0.18581745  0.57587238  0.33763401    -0.88800
H563        H  0.09747129  0.69671188  0.43760885     0.35300
H564        H  0.13945511  0.69430776  0.46461134     0.40400
H565        H  0.21611054  0.58170917  0.33511043     0.40000
H566        H  0.17200234  0.57936147  0.31039834     0.34900
C567        C  0.30985922  0.58352830  0.19406358    -0.26800
C568        C  0.27003921  0.58232814  0.20658698    -0.14900
C569        C  0.24772513  0.54796715  0.19946802     0.35700
C570        C  0.26488282  0.51647910  0.17887438    -0.26300
C571        C  0.30425705  0.51811162  0.16526208    -0.15500
C572        C  0.32709485  0.55202116  0.17355819     0.36800
N573        N  0.36792449  0.55512987  0.16250286    -0.89800
H574        H  0.32769918  0.60960894  0.19927806     0.17900
H575        H  0.24696965  0.49049134  0.17338293     0.17900
N576        N  0.20758549  0.54480339  0.21282921    -0.88800
H577        H  0.37006169  0.55414606  0.13185579     0.35300
H578        H  0.38337507  0.53117795  0.17449955     0.40400
H579        H  0.20556088  0.52015798  0.23130643     0.40000
H580        H  0.18953671  0.53983597  0.18837133     0.34900
C581        C  0.06889722  0.80977293  0.32460579    -0.26800
C582        C  0.03901103  0.78469469  0.33841315    -0.14900
C583        C  0.04097515  0.74389791  0.32944762     0.35700
C584        C  0.07244012  0.72894675  0.30706952    -0.26300
C585        C  0.10271223  0.75373563  0.29340056    -0.15500
C586        C  0.10054452  0.79479631  0.30204446     0.36800
N587        N  0.13027005  0.82153238  0.28804869    -0.89800
H588        H  0.06714222  0.84127684  0.33037843     0.17900
H589        H  0.07365754  0.69738350  0.30151199     0.17900
N590        N  0.01132684  0.71721983  0.34376691    -0.88800
H591        H  0.14294005  0.83554125  0.31236399     0.35300
H592        H  0.11642337  0.84314257  0.27084898     0.40400
H593        H  0.02531718  0.69561748  0.36089086     0.40000
H594        H  0.99843278  0.70317129  0.31960215     0.34900
C595        C  0.07249464  0.81154161  0.67474817    -0.26800
C596        C  0.04096879  0.78770397  0.66278154    -0.14900
C597        C  0.04238765  0.74661507  0.66997210     0.35700
C598        C  0.07473559  0.73008485  0.68955652    -0.26300
C599        C  0.10631804  0.75366868  0.70215346    -0.15500
C600        C  0.10508891  0.79499832  0.69451631     0.36800
N601        N  0.13656890  0.82043321  0.70690317    -0.89800
H602        H  0.07122071  0.84324672  0.67000128     0.17900
H603        H  0.07532214  0.69834818  0.69413161     0.17900
N604        N  0.01098028  0.72136970  0.65699842    -0.88800
H605        H  0.12465250  0.84203292  0.72553564     0.35300
H606        H  0.14800457  0.83464137  0.68204972     0.40400
H607        H  0.99943264  0.70675441  0.68156196     0.40000
H608        H  0.02302630  0.70007327  0.63808901     0.34900
C609        C  0.13778797  0.64948119  0.56868512    -0.26800
C610        C  0.13520708  0.60807382  0.56665966    -0.14900
C611        C  0.15425628  0.58501276  0.59549339     0.35700
C612        C  0.17458152  0.60379412  0.62611782    -0.26300
C613        C  0.17661035  0.64545986  0.62874124    -0.15500
C614        C  0.15790165  0.66838080  0.59915643     0.36800
N615        N  0.15780073  0.71078346  0.59940835    -0.89800
H616        H  0.12393206  0.66748859  0.54614353     0.17900
H617        H  0.18860651  0.58550243  0.64828706     0.17900
N618        N  0.15456356  0.54265476  0.59371468    -0.88800
H619        H  0.18703607  0.72080179  0.59846638     0.35300
H620        H  0.14399447  0.72072154  0.62513585     0.40400
H621        H  0.16684057  0.53403730  0.56679990     0.40000
H622        H  0.12531080  0.53265071  0.59496976     0.34900
C623        C  0.34113672  0.74450225  0.65530509    -0.26800
C624        C  0.33904745  0.73863746  0.69634789    -0.14900
C625        C  0.36878935  0.75519081  0.72031705     0.35700
C626        C  0.39923245  0.77730826  0.70315598    -0.26300
C627        C  0.40095751  0.78351037  0.66236462    -0.15500
C628        C  0.37191670  0.76656981  0.63806882     0.36800
N629        N  0.37427016  0.77101523  0.59607978    -0.89800
H630        H  0.31845291  0.73214915  0.63651043     0.17900
H631        H  0.42193411  0.78967104  0.72198535     0.17900
N632        N  0.36799729  0.75041238  0.76218302    -0.88800
H633        H  0.35047065  0.75682450  0.58245320     0.35300
H634        H  0.39990714  0.75647330  0.58654195     0.40400
H635        H  0.36667566  0.77852745  0.77502325     0.40000
H636        H  0.39449635  0.73694934  0.77079276     0.34900
C637        C  0.57847902  0.76549837  0.72026532    -0.26800
C638        C  0.60413535  0.74354521  0.69608004    -0.14900
C639        C  0.59907422  0.74515318  0.65479578     0.35700
C640        C  0.56862595  0.76840614  0.63868801    -0.26300
C641        C  0.54292965  0.78978476  0.66309813    -0.15500
C642        C  0.54805486  0.78843444  0.70414434     0.36800
N643        N  0.52222907  0.81044160  0.72956426    -0.89800
H644        H  0.58250325  0.76571030  0.75188066     0.17900
H645        H  0.56394511  0.76829725  0.60715996     0.17900
N646        N  0.62423756  0.72270444  0.62913169    -0.88800
H647        H  0.53954792  0.82971433  0.74628410     0.35300
H648        H  0.50856006  0.79053816  0.74880944     0.40400
H649        H  0.63806997  0.74236116  0.60974969     0.40000
H650        H  0.60645890  0.70368289  0.61261189     0.34900
C651        C  0.81073548  0.65288119  0.86979264    -0.26800
C652        C  0.76910870  0.65410992  0.86651644    -0.14900
C653        C  0.74595227  0.63513734  0.89551096     0.35700
C654        C  0.76456383  0.61576575  0.92681956    -0.26300
C655        C  0.80594256  0.61453050  0.92984652    -0.15500
C656        C  0.82925485  0.63354512  0.90118887     0.36800
N657        N  0.87154689  0.63497564  0.90407598    -0.89800
H658        H  0.82915084  0.66702741  0.84778842     0.17900
H659        H  0.74646481  0.60190265  0.94929481     0.17900
N660        N  0.70359861  0.63484807  0.89319349    -0.88800
H661        H  0.88243132  0.60596033  0.90409714     0.35300
H662        H  0.87898645  0.64824145  0.93080047     0.40400
H663        H  0.69233363  0.64780611  0.91880930     0.40000
H664        H  0.69422084  0.60538507  0.89243762     0.34900
C665        C  0.65053501  0.83951824  0.77601106    -0.26800
C666        C  0.67166302  0.81357766  0.80054813    -0.14900
C667        C  0.66973772  0.81909840  0.84177063     0.35700
C668        C  0.64665716  0.84989914  0.85751298    -0.26300
C669        C  0.62590647  0.87578144  0.83286851    -0.15500
C670        C  0.62774897  0.87053854  0.79172904     0.36800
N671        N  0.60643837  0.89689235  0.76610817    -0.89800
H672        H  0.65089945  0.83503010  0.74445948     0.17900
H673        H  0.64629857  0.85459856  0.88904628     0.17900
N674        N  0.69167987  0.79397364  0.86780422    -0.88800
H675        H  0.57623671  0.89335429  0.77191269     0.35300
H676        H  0.61081584  0.88904342  0.73667087     0.40400
H677        H  0.67168302  0.78057687  0.88717051     0.40000
H678        H  0.71076573  0.81170218  0.88429409     0.34900
C679        C  0.83580148  0.79296589  0.70389918    -0.26800
C680        C  0.83614570  0.75167120  0.71036962    -0.14900
C681        C  0.86905380  0.72944393  0.69744495     0.35700
C682        C  0.89988491  0.74838006  0.67753349    -0.26300
C683        C  0.89903258  0.78931624  0.67020848    -0.15500
C684        C  0.86679031  0.81190152  0.68406847     0.36800
N685        N  0.86519024  0.85401708  0.67945176    -0.89800
H686        H  0.81090585  0.81076164  0.71364275     0.17900
H687        H  0.92480728  0.73072076  0.66758465     0.17900
N688        N  0.87123966  0.68756790  0.70378198    -0.88800
H689        H  0.86524999  0.86062947  0.64940972     0.35300
H690        H  0.89048534  0.86622552  0.69221053     0.40400
H691        H  0.89695957  0.68151265  0.71976630     0.40000
H692        H  0.87373455  0.67367748  0.67639609     0.34900
C693        C  0.61059657  0.54783975  0.82471573    -0.26800
C694        C  0.63599473  0.52223690  0.84496541    -0.14900
C695        C  0.67725576  0.52731060  0.84175481     0.35700
C696        C  0.69257021  0.55705605  0.81757234    -0.26300
C697        C  0.66741059  0.58247204  0.79654010    -0.15500
C698        C  0.62587793  0.57783617  0.80047342     0.36800
N699        N  0.59903708  0.60307685  0.77957449    -0.89800
H700        H  0.57884289  0.54345179  0.82628871     0.17900
H701        H  0.72440193  0.56086653  0.81624668     0.17900
N702        N  0.70376191  0.50224936  0.86330230    -0.88800
H703        H  0.58085479  0.61728751  0.80013828     0.35300
H704        H  0.58112365  0.58532758  0.76182666     0.40400
H705        H  0.72115211  0.52017357  0.88137928     0.40000
H706        H  0.72252225  0.48813665  0.84317117     0.34900
C707        C  0.65156963  0.05611906  0.77947981    -0.26800
C708        C  0.67099416  0.08241652  0.80489392    -0.14900
C709        C  0.66810053  0.07630787  0.84599952     0.35700
C710        C  0.64588062  0.04446262  0.86069187    -0.26300
C711        C  0.62681497  0.01832680  0.83509213    -0.15500
C712        C  0.62960910  0.02432087  0.79420580     0.36800
N713        N  0.60954332  0.99842507  0.76752944    -0.89800
H714        H  0.65240672  0.06076971  0.74795109     0.17900
H715        H  0.64466329  0.03937705  0.89214967     0.17900
N716        N  0.68799644  0.10198828  0.87297461    -0.88800
H717        H  0.63063240  0.98604409  0.74857417     0.35300
H718        H  0.59002849  0.01543709  0.75066434     0.40400
H719        H  0.70733308  0.08484680  0.88991641     0.40000
H720        H  0.66677872  0.11432554  0.89180176     0.34900
C721        C  0.69460162  0.34347377  0.81816805    -0.26800
C722        C  0.66923159  0.31681882  0.79905269    -0.14900
C723        C  0.62784692  0.32288386  0.80142067     0.35700
C724        C  0.61268291  0.35414661  0.82399981    -0.26300
C725        C  0.63806007  0.38022798  0.84341634    -0.15500
C726        C  0.67945524  0.37521220  0.84015993     0.36800
N727        N  0.70589179  0.40234087  0.85934188    -0.89800
H728        H  0.72636295  0.33895810  0.81698727     0.17900
H729        H  0.58094329  0.35891890  0.82515256     0.17900
N730        N  0.60102622  0.29770806  0.78061498    -0.88800
H731        H  0.73539564  0.39448922  0.85411728     0.35300
H732        H  0.70125068  0.39987852  0.88966292     0.40400
H733        H  0.58428627  0.31529788  0.76156821     0.40000
H734        H  0.58172735  0.28492536  0.80108107     0.34900
C735        C  0.57354630  0.13752844  0.72603936    -0.26800
C736        C  0.60221507  0.15508376  0.70175716    -0.14900
C737        C  0.59979918  0.14935235  0.66041489     0.35700
C738        C  0.56911341  0.12617806  0.64468365    -0.26300
C739        C  0.54046280  0.10918567  0.66908494    -0.15500
C740        C  0.54294448  0.11451226  0.71023569     0.36800
N741        N  0.51442735  0.09617983  0.73587420    -0.89800
H742        H  0.57562462  0.14068896  0.75767395     0.17900
H743        H  0.56663202  0.12266209  0.61310681     0.17900
N744        N  0.62838716  0.16700447  0.63441909    -0.88800
H745        H  0.52027390  0.10305940  0.76527141     0.35300
H746        H  0.51776105  0.06553250  0.73310298     0.40400
H747        H  0.62485168  0.19771361  0.63621617     0.40000
H748        H  0.62281934  0.15918946  0.60520764     0.34900
C749        C  0.33424788  0.13760282  0.66280601    -0.26800
C750        C  0.33423564  0.14650842  0.70335853    -0.14900
C751        C  0.36622409  0.13316041  0.72667859     0.35700
C752        C  0.39741217  0.11231895  0.70881385    -0.26300
C753        C  0.39783385  0.10455156  0.66820136    -0.15500
C754        C  0.36541474  0.11680430  0.64513866     0.36800
N755        N  0.36378839  0.10978804  0.60362857    -0.89800
H756        H  0.30968617  0.14669960  0.64442458     0.17900
H757        H  0.42220754  0.10279928  0.72670045     0.17900
N758        N  0.36709660  0.14044803  0.76833765    -0.88800
H759        H  0.36425569  0.07926199  0.59877488     0.35300
H760        H  0.38874093  0.12245508  0.59044804     0.40400
H761        H  0.37058983  0.17094182  0.77233763     0.40000
H762        H  0.39177481  0.12700012  0.78121136     0.34900
C763        C  0.30475112  0.87090507  0.79803564    -0.26800
C764        C  0.30575340  0.87244800  0.83925774    -0.14900
C765        C  0.28636586  0.84307567  0.86129764     0.35700
C766        C  0.26671487  0.81233909  0.84146004    -0.26300
C767        C  0.26590664  0.81055625  0.80000546    -0.15500
C768        C  0.28520596  0.84039665  0.77825985     0.36800
N769        N  0.28560591  0.83976390  0.73612946    -0.89800
H770        H  0.31882689  0.89406690  0.78095782     0.17900
H771        H  0.25208623  0.78958355  0.85855715     0.17900
N772        N  0.28505493  0.84559995  0.90347609    -0.88800
H773        H  0.31511040  0.83877675  0.72671500     0.35300
H774        H  0.27303320  0.86616556  0.72603183     0.40400
H775        H  0.31394155  0.84169143  0.91384267     0.40000
H776        H  0.26827939  0.82245782  0.91517707     0.34900
C777        C  0.28722680  0.01317970  0.80176403    -0.26800
C778        C  0.29933779  0.01457516  0.84127798    -0.14900
C779        C  0.29072870  0.04844915  0.86385464     0.35700
C780        C  0.27037654  0.08024090  0.84623767    -0.26300
C781        C  0.25838745  0.07887415  0.80650135    -0.15500
C782        C  0.26705245  0.04472173  0.78425953     0.36800
N783        N  0.25598467  0.04188870  0.74370061    -0.89800
H784        H  0.29360617  0.98727238  0.78401173     0.17900
H785        H  0.26444863  0.10647562  0.86360567     0.17900
N786        N  0.30208942  0.05030769  0.90452707    -0.88800
H787        H  0.23789401  0.01704257  0.74033374     0.35300
H788        H  0.28167994  0.03745504  0.72705400     0.40400
H789        H  0.28598772  0.02870879  0.91964899     0.40000
H790        H  0.29399816  0.07754956  0.91676259     0.34900
C791        C  0.14949493  0.30697375  0.40724140    -0.26800
C792        C  0.12696955  0.28208683  0.43140553    -0.14900
C793        C  0.12614362  0.24118807  0.42365352     0.35700
C794        C  0.14784059  0.22568099  0.39204293    -0.26300
C795        C  0.17076225  0.25032908  0.36779653    -0.15500
C796        C  0.17150567  0.29146266  0.37561916     0.36800
N797        N  0.19507533  0.31751165  0.35203241    -0.89800
H798        H  0.15120383  0.33831645  0.41380532     0.17900
H799        H  0.14585881  0.19426180  0.38594456     0.17900
N800        N  0.10295530  0.21531841  0.44781808    -0.88800
H801        H  0.21524674  0.33178758  0.37045398     0.35300
H802        H  0.17637043  0.33900326  0.33994969     0.40400
H803        H  0.12188588  0.19394568  0.45978975     0.40000
H804        H  0.08259716  0.20081454  0.42981430     0.34900
C805        C  0.15563131  0.22213855  0.60892900    -0.26800
C806        C  0.17571449  0.24703082  0.63524313    -0.14900
C807        C  0.17312484  0.28853557  0.62982035     0.35700
C808        C  0.15012331  0.30411150  0.59905987    -0.26300
C809        C  0.13004164  0.27907017  0.57314002    -0.15500
C810        C  0.13299794  0.23776697  0.57809092     0.36800
N811        N  0.11236406  0.21156108  0.55216531    -0.89800
H812        H  0.15636147  0.19031917  0.61291800     0.17900
H813        H  0.14901384  0.33587219  0.59466556     0.17900
N814        N  0.19397677  0.31506791  0.65522691    -0.88800
H815        H  0.09322881  0.19419181  0.56907525     0.35300
H816        H  0.13318582  0.19276311  0.53901691     0.40400
H817        H  0.17328593  0.33399531  0.66839375     0.40000
H818        H  0.21298466  0.33222593  0.63796605     0.34900
C819        C  0.06478200  0.09128332  0.68027787    -0.26800
C820        C  0.03872705  0.11666788  0.66065022    -0.14900
C821        C  0.04377023  0.15793540  0.66382453     0.35700
C822        C  0.07491021  0.17317181  0.68631715    -0.26300
C823        C  0.10109355  0.14787470  0.70631480    -0.15500
C824        C  0.09556889  0.10643055  0.70340539     0.36800
N825        N  0.12071363  0.07950392  0.72431184    -0.89800
H826        H  0.06017030  0.05956619  0.67910407     0.17900
H827        H  0.07901404  0.20495905  0.68734754     0.17900
N828        N  0.01734519  0.18446747  0.64397443    -0.88800
H829        H  0.13409461  0.06058247  0.70385391     0.35300
H830        H  0.10298943  0.06239857  0.74292508     0.40400
H831        H  0.03410656  0.20219650  0.62503900     0.40000
H832        H  0.00424731  0.20288130  0.66503913     0.34900
C833        C  0.87087856  0.08893431  0.68479207    -0.26800
C834        C  0.89648602  0.11438790  0.66458814    -0.14900
C835        C  0.89094479  0.15568020  0.66716517     0.35700
C836        C  0.86003996  0.17080698  0.69018161    -0.26300
C837        C  0.83415635  0.14560283  0.71053686    -0.15500
C838        C  0.83982324  0.10409910  0.70806250     0.36800
N839        N  0.81432208  0.07756027  0.72928524    -0.89800
H840        H  0.87605480  0.05728454  0.68357775     0.17900
H841        H  0.85541093  0.20254404  0.69105220     0.17900
N842        N  0.91675246  0.18210834  0.64612322    -0.88800
H843        H  0.81863153  0.08270294  0.75929236     0.35300
H844        H  0.82241868  0.04812431  0.72409410     0.40400
H845        H  0.90885181  0.21159797  0.65125824     0.40000
H846        H  0.91265671  0.17701300  0.61606990     0.34900
C847        C  0.36510635  0.12182406  0.35831662    -0.26800
C848        C  0.39735509  0.11197694  0.33441772    -0.14900
C849        C  0.39686899  0.12295900  0.29418805     0.35700
C850        C  0.36440462  0.14407082  0.27904940    -0.26300
C851        C  0.33217435  0.15450121  0.30302732    -0.15500
C852        C  0.33280766  0.14314456  0.34324564     0.36800
N853        N  0.30082536  0.15314221  0.36918756    -0.89800
H854        H  0.36553867  0.11419016  0.38927642     0.17900
H855        H  0.36406465  0.15177246  0.24812264     0.17900
N856        N  0.42935113  0.11248534  0.26874690    -0.88800
H857        H  0.31222614  0.16985522  0.39240934     0.35300
H858        H  0.28932663  0.12690634  0.38079883     0.40400
H859        H  0.42460593  0.12299663  0.24023292     0.40000
H860        H  0.43029531  0.08158874  0.26690852     0.34900
C861        C  0.59883687  0.15478751  0.34501898    -0.26800
C862        C  0.60164170  0.15764122  0.30371151    -0.14900
C863        C  0.57296615  0.13846338  0.28041451     0.35700
C864        C  0.54241295  0.11738664  0.29855002    -0.26300
C865        C  0.53966566  0.11459718  0.33963901    -0.15500
C866        C  0.56824305  0.13353079  0.36310910     0.36800
N867        N  0.56624684  0.13271412  0.40517975    -0.89800
H868        H  0.62077151  0.16887478  0.36350227     0.17900
H869        H  0.52029410  0.10330239  0.28023825     0.17900
N870        N  0.57501112  0.13944920  0.23832626    -0.88800
H871        H  0.56794429  0.10325328  0.41442132     0.35300
H872        H  0.53890695  0.14434804  0.41397330     0.40400
H873        H  0.54858263  0.15157979  0.22775450     0.40000
H874        H  0.57718564  0.11032658  0.22810384     0.34900
C875        C  0.83354370  0.10916631  0.30793743    -0.26800
C876        C  0.83418579  0.14990781  0.29870960    -0.14900
C877        C  0.86630336  0.17307235  0.31194001     0.35700
C878        C  0.89636675  0.15515393  0.33406314    -0.26300
C879        C  0.89593870  0.11447114  0.34271192    -0.15500
C880        C  0.86394956  0.09131436  0.32957725     0.36800
N881        N  0.86210459  0.04954747  0.33655571    -0.89800
H882        H  0.80902568  0.09086247  0.29854128     0.17900
H883        H  0.92105542  0.17303671  0.34386622     0.17900
N884        N  0.86842537  0.21467355  0.30321397    -0.88800
H885        H  0.86159945  0.04470892  0.36690576     0.35300
H886        H  0.88752341  0.03632951  0.32476698     0.40400
H887        H  0.87253070  0.21748798  0.27285168     0.40000
H888        H  0.89321962  0.22747120  0.31642213     0.34900
C889        C  0.66718232  0.38544061  0.18303340    -0.26800
C890        C  0.62887687  0.38174090  0.16703334    -0.14900
C891        C  0.60875915  0.34550456  0.17143163     0.35700
C892        C  0.62711499  0.31437814  0.19163096    -0.26300
C893        C  0.66556982  0.31810088  0.20755798    -0.15500
C894        C  0.68561605  0.35444478  0.20297397     0.36800
N895        N  0.72447388  0.36125332  0.21835195    -0.89800
H896        H  0.68335755  0.41294824  0.18005358     0.17900
H897        H  0.61114722  0.28672166  0.19421195     0.17900
N898        N  0.56953543  0.33955798  0.15666667    -0.88800
H899        H  0.74463364  0.34269474  0.20396611     0.35300
H900        H  0.72435413  0.35504663  0.24846838     0.40400
H901        H  0.57006148  0.34277498  0.12611114     0.40000
H902        H  0.55085342  0.36109229  0.16877591     0.34900
C903        C  0.83035317  0.63683834  0.10005936    -0.26800
C904        C  0.80574458  0.62107708  0.07098743    -0.14900
C905        C  0.76447629  0.62698460  0.07348411     0.35700
C906        C  0.74835827  0.64790222  0.10513800    -0.26300
C907        C  0.77261771  0.66310836  0.13489262    -0.15500
C908        C  0.81421272  0.65805135  0.13186042     0.36800
N909        N  0.84021702  0.67438708  0.16083225    -0.89800
H910        H  0.86219582  0.63347468  0.09762631     0.17900
H911        H  0.71644665  0.65088621  0.10701251     0.17900
N912        N  0.73863233  0.61082214  0.04425314    -0.88800
H913        H  0.85982207  0.69360753  0.14666010     0.35300
H914        H  0.85672687  0.65123567  0.17304166     0.40400
H915        H  0.72246912  0.63409256  0.03183586     0.40000
H916        H  0.71869476  0.59179609  0.05825475     0.34900
C917        C  0.62498056  0.59233592  0.18772473    -0.26800
C918        C  0.66293449  0.58902855  0.20481676    -0.14900
C919        C  0.68313995  0.55268696  0.20243201     0.35700
C920        C  0.66562191  0.52091263  0.18291562    -0.26300
C921        C  0.62766780  0.52396026  0.16596384    -0.15500
C922        C  0.60704633  0.56013943  0.16849619     0.36800
N923        N  0.56799269  0.56401633  0.15219126    -0.89800
H924        H  0.60926860  0.62030141  0.18895140     0.17900
H925        H  0.68208747  0.49338038  0.18130869     0.17900
N926        N  0.72138678  0.54761783  0.21993533    -0.88800
H927        H  0.55724599  0.59280145  0.15609447     0.35300
H928        H  0.54920122  0.54542607  0.16819080     0.40400
H929        H  0.74131578  0.53918033  0.19786303     0.40000
H930        H  0.71961411  0.52456400  0.24036078     0.34900
C931        C  0.83511723  0.79270447  0.30715229    -0.26800
C932        C  0.83335266  0.75157110  0.30017920    -0.14900
C933        C  0.86353261  0.72713466  0.31562252     0.35700
C934        C  0.89471592  0.74408789  0.33673366    -0.26300
C935        C  0.89660127  0.78508212  0.34320763    -0.15500
C936        C  0.86652910  0.80970787  0.32831062     0.36800
N937        N  0.86860653  0.85186872  0.33360996    -0.89800
H938        H  0.81193251  0.81183574  0.29599444     0.17900
H939        H  0.91805572  0.72500424  0.34776204     0.17900
N940        N  0.86267524  0.68506307  0.31039256    -0.88800
H941        H  0.84396938  0.86573918  0.32102672     0.35300
H942        H  0.89337905  0.86202718  0.31817437     0.40400
H943        H  0.86232571  0.67179699  0.33818871     0.40000
H944        H  0.88874134  0.67649929  0.29605784     0.34900
C945        C  0.82752549  0.26194161  0.90947786    -0.26800
C946        C  0.80462554  0.28871056  0.93128902    -0.14900
C947        C  0.76389921  0.29235574  0.92335436     0.35700
C948        C  0.74667204  0.26959140  0.89352663    -0.26300
C949        C  0.76943161  0.24272901  0.87144632    -0.15500
C950        C  0.81028656  0.23887289  0.87971297     0.43400
N951        N  0.83421161  0.21101908  0.85850730    -0.89800
H952        H  0.85853263  0.25778466  0.91659799     0.17900
H953        H  0.71554038  0.27380505  0.88698648     0.17900
N954        N  0.73993870  0.31923546  0.94573692    -0.88800
H955        H  0.84654327  0.19126048  0.87874994     0.35300
H956        H  0.85735890  0.22649932  0.84505981     0.40400
H957        H  0.71724467  0.30303029  0.95908602     0.40000
H958        H  0.72695008  0.33931046  0.92622513     0.34900
C959        C  0.82893349  0.26602340  0.09895314    -0.26800
C960        C  0.80431945  0.28620741  0.07259767    -0.14900
C961        C  0.76295858  0.28460762  0.07755156     0.35700
C962        C  0.74675133  0.26351494  0.10905058    -0.26300
C963        C  0.77114006  0.24372295  0.13604984    -0.15500
C964        C  0.81270928  0.24455770  0.13049648     0.36800
N965        N  0.83853726  0.22341799  0.15650382    -0.89800
H966        H  0.86071759  0.26598800  0.09441542     0.17900
H967        H  0.71489740  0.26386352  0.11302799     0.17900
N968        N  0.73728961  0.30510382  0.05087910    -0.88800
H969        H  0.85821897  0.24369352  0.16895568     0.35300
H970        H  0.85499006  0.20322751  0.13982326     0.40400
H971        H  0.72030441  0.32527610  0.06707466     0.40000
H972        H  0.71807145  0.28442310  0.03839286     0.34900
C973        C  0.63650160  0.02497692  0.20318110    -0.26800
C974        C  0.63228605  0.02444038  0.16209018    -0.14900
C975        C  0.64899270  0.05501277  0.13950907     0.35700
C976        C  0.66946167  0.08565845  0.15867492    -0.26300
C977        C  0.67385205  0.08620105  0.19998349    -0.15500
C978        C  0.65687171  0.05540148  0.22227106     0.36800
N979        N  0.65956685  0.05499960  0.26431067    -0.89800
H980        H  0.62411483  0.00120466  0.22071553     0.17900
H981        H  0.68192389  0.10932897  0.14112219     0.17900
N982        N  0.64602769  0.05434731  0.09734379    -0.88800
H983        H  0.67332204  0.02860670  0.27280047     0.35300
H984        H  0.63081391  0.05515010  0.27582769     0.40400
H985        H  0.66182225  0.02968720  0.08724695     0.40000
H986        H  0.65976517  0.07919891  0.08515181     0.34900
C987        C  0.65569341  0.85715113  0.13910729    -0.26800
C988        C  0.63213153  0.88247431  0.16178556    -0.14900
C989        C  0.63053712  0.87743765  0.20297967     0.35700
C990        C  0.65245769  0.84693348  0.22075291    -0.26300
C991        C  0.67611936  0.82132663  0.19820607    -0.15500
C992        C  0.67782510  0.82681042  0.15689416     0.36800
N993        N  0.70239793  0.80198595  0.13286007    -0.89800
H994        H  0.65814320  0.86187503  0.10766202     0.17900
H995        H  0.65006389  0.84246321  0.25222329     0.17900
N996        N  0.60668668  0.90362115  0.22658066    -0.88800
H997        H  0.72260526  0.81998268  0.11794212     0.35300
H998        H  0.68441791  0.78821817  0.11196501     0.40400
H999        H  0.60871657  0.89609449  0.25633997     0.40000
H1000       H  0.57713853  0.89945620  0.21847275     0.34900
C1001       C  0.13073890  0.63510138  0.13616240    -0.26800
C1002       C  0.16664095  0.65601815  0.13225200    -0.14900
C1003       C  0.18597682  0.65623786  0.09552850     0.35700
C1004       C  0.16898325  0.63596253  0.06373433    -0.26300
C1005       C  0.13277595  0.61545752  0.06737710    -0.15500
C1006       C  0.11385993  0.61475253  0.10432561     0.36800
N1007       N  0.07742337  0.59383965  0.10978380    -0.89800
H1008       H  0.11591124  0.63372090  0.16442606     0.17900
H1009       H  0.18428845  0.63648411  0.03571741     0.17900
N1010       N  0.22269875  0.67710180  0.09048174    -0.88800
H1011       H  0.05602805  0.61399696  0.11964389     0.35300
H1012       H  0.08170056  0.57272194  0.13183774     0.40400
H1013       H  0.21686399  0.70724422  0.09450731     0.40000
H1014       H  0.23332094  0.67392646  0.06174475     0.34900
C1015       C  0.10743465  0.63486871  0.89988791    -0.26800
C1016       C  0.13076460  0.61193844  0.92517019    -0.14900
C1017       C  0.17198301  0.60943107  0.91878110     0.35700
C1018       C  0.18914541  0.62993537  0.88716033    -0.26300
C1019       C  0.16598136  0.65300205  0.86162096    -0.15500
C1020       C  0.12466402  0.65552762  0.86830271     0.36800
N1021       N  0.10014875  0.67958521  0.84358472    -0.89800
H1022       H  0.07596292  0.63790946  0.90549971     0.17900
H1023       H  0.22067915  0.62699303  0.88190580     0.17900
N1024       N  0.19623559  0.58601181  0.94463347    -0.88800
H1025       H  0.08605653  0.70070596  0.86122234     0.35300
H1026       H  0.07836414  0.66149654  0.83126393     0.40400
H1027       H  0.22596383  0.58729051  0.93606363     0.40000
H1028       H  0.18747008  0.55651097  0.94162411     0.34900
C1029       C  0.78334749  0.64855371  0.56470740    -0.26800
C1030       C  0.80390547  0.61221719  0.56745432    -0.14900
C1031       C  0.80466938  0.59235795  0.60394803     0.35700
C1032       C  0.78531538  0.60942290  0.63655986    -0.26300
C1033       C  0.76475894  0.64570568  0.63360212    -0.15500
C1034       C  0.76356034  0.66523781  0.59704622     0.36800
N1035       N  0.74222241  0.70187955  0.59272305    -0.89800
H1036       H  0.78245625  0.66426049  0.53695130     0.17900
H1037       H  0.78680889  0.59441808  0.66467738     0.17900
N1038       N  0.82462402  0.55493177  0.60788592    -0.88800
H1039       H  0.71221811  0.69589328  0.59741895     0.35300
H1040       H  0.74464953  0.71263552  0.56398128     0.40400
H1041       H  0.80920764  0.53430167  0.59090202     0.40000
H1042       H  0.82320539  0.54485709  0.63692292     0.34900
C1043       C  0.78453811  0.58895450  0.39903710    -0.26800
C1044       C  0.80523583  0.61282312  0.42554939    -0.14900
C1045       C  0.80346880  0.65437599  0.42166611     0.35700
C1046       C  0.78042513  0.67135327  0.39180347    -0.26300
C1047       C  0.75940508  0.64772570  0.36514939    -0.15500
C1048       C  0.76170736  0.60597423  0.36886514     0.36800
N1049       N  0.74072565  0.58067598  0.34233106    -0.89800
H1050       H  0.78496142  0.55707079  0.40256977     0.17900
H1051       H  0.78001685  0.70326095  0.38862558     0.17900
N1052       N  0.82525306  0.67917769  0.44827910    -0.88800
H1053       H  0.72157723  0.56288372  0.35881837     0.35300
H1054       H  0.76131368  0.56223003  0.32840067     0.40400
H1055       H  0.82082748  0.70908881  0.44160103     0.40000
H1056       H  0.85535825  0.67340820  0.44385298     0.34900
C1057       C  0.29019882  0.85161802  0.14040624    -0.26800
C1058       C  0.30861441  0.87897939  0.16515021    -0.14900
C1059       C  0.30539431  0.87448011  0.20622094     0.35700
C1060       C  0.28365202  0.84305095  0.22198817    -0.26300
C1061       C  0.26468330  0.81565326  0.19750720    -0.15500
C1062       C  0.26790128  0.82014261  0.15605051     0.36800
N1063       N  0.24845564  0.79298258  0.12992780    -0.89800
H1064       H  0.29183681  0.85578707  0.10884096     0.17900
H1065       H  0.28247437  0.83967958  0.25366703     0.17900
N1066       N  0.32465520  0.90167965  0.23214502    -0.88800
H1067       H  0.25434083  0.80012107  0.10056707     0.35300
H1068       H  0.21793617  0.79638134  0.13398039     0.40400
H1069       H  0.34464722  0.88566755  0.24946806     0.40000
H1070       H  0.30316674  0.91363794  0.25085112     0.34900
C1071       C  0.28694555  0.04967625  0.13996674    -0.26800
C1072       C  0.30411173  0.02131993  0.16468579    -0.14900
C1073       C  0.29895043  0.02462146  0.20571845     0.35700
C1074       C  0.27698740  0.05596721  0.22141653    -0.26300
C1075       C  0.25988799  0.08468687  0.19701671    -0.15500
C1076       C  0.26466637  0.08117756  0.15570318     0.36800
N1077       N  0.24683098  0.10926366  0.12955478    -0.89800
H1078       H  0.28980681  0.04673612  0.10834438     0.17900
H1079       H  0.27444796  0.05834048  0.25310789     0.17900
N1080       N  0.31663098  0.99640311  0.23179090    -0.88800
H1081       H  0.22800727  0.09395383  0.11055141     0.35300
H1082       H  0.26928045  0.12217007  0.11268714     0.40400
H1083       H  0.29407275  0.98414979  0.24895169     0.40000
H1084       H  0.33580463  0.01157098  0.25059667     0.34900
C1085       C  0.16724542  0.26722256  0.93479681    -0.26800
C1086       C  0.12989865  0.28564416  0.93120216    -0.14900
C1087       C  0.10983811  0.28322541  0.89501862     0.35700
C1088       C  0.12769940  0.26278236  0.86346967    -0.26300
C1089       C  0.16512133  0.24431991  0.86718969    -0.15500
C1090       C  0.18488192  0.24679444  0.90370656     0.36800
N1091       N  0.22267279  0.22872158  0.91063162    -0.89800
H1092       H  0.18334867  0.26864209  0.96229399     0.17900
H1093       H  0.11226024  0.26165920  0.83561002     0.17900
N1094       N  0.07133507  0.30084605  0.89044860    -0.88800
H1095       H  0.24395381  0.24237641  0.89290753     0.35300
H1096       H  0.22091163  0.19863654  0.90371824     0.40400
H1097       H  0.05176941  0.28550774  0.90877255     0.40000
H1098       H  0.06102511  0.29699476  0.86173245     0.34900
C1099       C  0.12458676  0.26195270  0.13876798    -0.26800
C1100       C  0.16356647  0.24684952  0.13632782    -0.14900
C1101       C  0.18560988  0.25347188  0.10179320     0.35700
C1102       C  0.16856304  0.27442914  0.07073352    -0.26300
C1103       C  0.12946226  0.28882729  0.07274600    -0.15500
C1104       C  0.10725178  0.28276944  0.10729975     0.36800
N1105       N  0.06717831  0.29697082  0.11015131    -0.89800
H1106       H  0.10753136  0.25783483  0.16546417     0.17900
H1107       H  0.18615739  0.27899463  0.04442236     0.17900
N1108       N  0.22532465  0.23894668  0.09783993    -0.88800
H1109       H  0.05528864  0.29060405  0.13784082     0.35300
H1110       H  0.05024341  0.28128636  0.08972583     0.40400
H1111       H  0.24392813  0.26307499  0.09255493     0.40000
H1112       H  0.22649311  0.22032868  0.07330572     0.34900
C1113       C  0.31272110  0.31008933  0.80810832    -0.26800
C1114       C  0.27273658  0.31165607  0.79608231    -0.14900
C1115       C  0.24987299  0.34537873  0.80569972     0.35700
C1116       C  0.26715586  0.37595682  0.82733229    -0.26300
C1117       C  0.30715661  0.37476067  0.83870748    -0.15500
C1118       C  0.33008611  0.34117885  0.82914422     0.36800
N1119       N  0.37108528  0.33814785  0.83943276    -0.89800
H1120       H  0.33068427  0.28429046  0.80155200     0.17900
H1121       H  0.24926663  0.40163668  0.83458523     0.17900
N1122       N  0.20913003  0.34862921  0.79380334    -0.88800
H1123       H  0.37347814  0.33938511  0.87004010     0.35300
H1124       H  0.38615714  0.36222461  0.82725607     0.40400
H1125       H  0.20875164  0.35083872  0.76313127     0.40000
H1126       H  0.19630906  0.37469235  0.80453735     0.34900
C1127       C  0.26474266  0.51378971  0.82056420    -0.26800
C1128       C  0.30375007  0.51673187  0.83504796    -0.14900
C1129       C  0.32553087  0.55116624  0.82738099     0.35700
C1130       C  0.30835430  0.58165664  0.80525152    -0.26300
C1131       C  0.26933957  0.57880141  0.79065772    -0.15500
C1132       C  0.24745755  0.54430621  0.79853349     0.36800
N1133       N  0.20784213  0.53990216  0.78421405    -0.89800
H1134       H  0.24749144  0.48733462  0.82603662     0.17900
H1135       H  0.32572722  0.60807972  0.80014123     0.17900
N1136       N  0.36541948  0.55498399  0.84102725    -0.88800
H1137       H  0.18912432  0.53542671  0.80835941     0.35300
H1138       H  0.20687610  0.51456889  0.76662026     0.40400
H1139       H  0.36696910  0.58024133  0.85870780     0.40000
H1140       H  0.38376048  0.55937017  0.81659926     0.34900
C1141       C  0.37096220  0.76672293  0.35899729    -0.26800
C1142       C  0.39756145  0.78686311  0.33460061    -0.14900
C1143       C  0.39361101  0.78405740  0.29337639     0.35700
C1144       C  0.36285415  0.76146919  0.27733034    -0.26300
C1145       C  0.33566388  0.74160338  0.30152214    -0.15500
C1146       C  0.34026611  0.74370407  0.34295972     0.36800
N1147       N  0.31390135  0.72249746  0.36863473    -0.89800
H1148       H  0.37498842  0.76788493  0.39058817     0.17900
H1149       H  0.35933505  0.76063513  0.24567916     0.17900
N1150       N  0.42076015  0.80459587  0.26793601    -0.88800
H1151       H  0.32116060  0.72748325  0.39809210     0.35300
H1152       H  0.31819546  0.69227705  0.36347980     0.40400
H1153       H  0.41691864  0.83494173  0.27272027     0.40000
H1154       H  0.41394850  0.79942398  0.23840619     0.34900
C1155       C  0.56134700  0.76687821  0.35784595    -0.26800
C1156       C  0.53962868  0.79411413  0.33561761    -0.14900
C1157       C  0.54846033  0.79963394  0.29550769     0.35700
C1158       C  0.57892193  0.77738245  0.27811369    -0.26300
C1159       C  0.60064656  0.74972608  0.30014096    -0.15500
C1160       C  0.59169929  0.74435282  0.34047945     0.36800
N1161       N  0.61306674  0.71569468  0.36347692    -0.89800
H1162       H  0.55334790  0.76188889  0.38833692     0.17900
H1163       H  0.58641040  0.78245703  0.24751705     0.17900
N1164       N  0.52604713  0.82757895  0.27262398    -0.88800
H1165       H  0.60692689  0.68774446  0.35184035     0.35300
H1166       H  0.60288639  0.71552423  0.39254736     0.40400
H1167       H  0.53617018  0.82808055  0.24353007     0.40000
H1168       H  0.53133572  0.85571929  0.28421805     0.34900
C1169       C  0.78264703  0.31043562  0.60312854    -0.26800
C1170       C  0.80281997  0.28643041  0.57617350    -0.14900
C1171       C  0.80233500  0.24492925  0.58081211     0.35700
C1172       C  0.78173915  0.22816921  0.61252390    -0.26300
C1173       C  0.76169913  0.25203319  0.63988883    -0.15500
C1174       C  0.76189580  0.29362236  0.63479694     0.36800
N1175       N  0.74069672  0.31890027  0.66137770    -0.89800
H1176       H  0.78196281  0.34223217  0.59890998     0.17900
H1177       H  0.78250739  0.19635858  0.61654054     0.17900
N1178       N  0.82311603  0.22001025  0.55332275    -0.88800
H1179       H  0.72003384  0.33518130  0.64517140     0.35300
H1180       H  0.76084528  0.33876161  0.67374150     0.40400
H1181       H  0.81978656  0.19016590  0.56077646     0.40000
H1182       H  0.85329379  0.22636938  0.55573226     0.34900
C1183       C  0.78607930  0.24900259  0.43597149    -0.26800
C1184       C  0.80290636  0.28704238  0.43412884    -0.14900
C1185       C  0.80023557  0.30866229  0.39873572     0.35700
C1186       C  0.78028420  0.29192618  0.36643583    -0.26300
C1187       C  0.76282124  0.25407836  0.36867392    -0.15500
C1188       C  0.76617918  0.23250235  0.40393573     0.36800
N1189       N  0.74937230  0.19378566  0.40762156    -0.89800
H1190       H  0.78811869  0.23169597  0.46273747     0.17900
H1191       H  0.77878372  0.30850001  0.33920424     0.17900
N1192       N  0.81714437  0.34755567  0.39572764    -0.88800
H1193       H  0.72923265  0.19419216  0.43102557     0.35300
H1194       H  0.77212572  0.17396777  0.41462361     0.40400
H1195       H  0.80128824  0.36616053  0.41467025     0.40000
H1196       H  0.81336286  0.35896056  0.36739266     0.34900
loop_ 
_geom_bond_atom_site_label_1 
_geom_bond_atom_site_label_2 
_geom_bond_distance 
_geom_bond_site_symmetry_2 
_ccdc_geom_bond_type 
C1            N2   1.350       .  A
C1            N6   1.362       .  A
C1         C1184   1.485       .  S
N2            C3   1.348       .  A
C3            N4   1.360       .  A
C3         C1170   1.470       .  S
N4            C5   1.364       .  A
C5            N6   1.365       .  A
C5          C511   1.487       .  S
C7            N8   1.359       .  A
C7           N12   1.347       .  A
C7         C1156   1.462       .  S
N8            C9   1.363       .  A
C9           N10   1.367       .  A
C9          C479   1.488       .  S
N10          C11   1.364       .  A
C11          N12   1.348       .  A
C11        C1142   1.474       .  S
C13          N14   1.361       .  A
C13          N18   1.346       .  A
C13        C1117   1.478       .  S
N14          C15   1.366       .  A
C15          N16   1.367       .  A
C15         C446   1.489       .  S
N16          C17   1.363       .  A
C17          N18   1.344       .  A
C17        C1128   1.479       .  S
C19          N20   1.361       .  A
C19          N24   1.346       .  A
C19        C1103   1.479       .  S
N20          C21   1.366       .  A
C21          N22   1.368   1_554  A
C21          C66   1.489       .  S
N22          C23   1.364       .  A
C23          N24   1.346   1_556  A
C23        C1086   1.488       .  S
C25          N26   1.347       .  A
C25          N30   1.362       .  A
C25        C1058   1.472       .  S
N26          C27   1.348       .  A
C27          N28   1.363       .  A
C27        C1072   1.473   1_565  S
N28          C29   1.367       .  A
C29          N30   1.366       .  A
C29         C104   1.491       .  S
C31          N32   1.362       .  A
C31          N36   1.347       .  A
C31        C1044   1.473       .  S
N32          C33   1.367       .  A
C33          N34   1.367       .  A
C33         C514   1.493       .  S
N34          C35   1.364       .  A
C35          N36   1.349       .  A
C35        C1030   1.491       .  S
C37          N38   1.351   1_554  A
C37          N42   1.364       .  A
C37        C1005   1.491       .  S
N38          C39   1.348       .  A
C39          N40   1.361       .  A
C39        C1016   1.472       .  S
N40          C41   1.366       .  A
C41          N42   1.367   1_556  A
C41          C63   1.491       .  S
N43          C48   1.354       .  A
N43          C47   1.356       .  A
N43          H75   1.031   1_554  S
N44          C51   1.355   1_554  A
N44          C52   1.354   1_554  A
N45          C50   1.356   1_556  A
N45          C49   1.356   1_556  A
N45          H76   1.035       .  S
N46          C53   1.356       .  A
N46          C54   1.356       .  A
C47          C55   1.387       .  A
C47          C63   1.424   1_654  A
C48          C64   1.423       .  A
C48          C56   1.389       .  A
C49          C57   1.388       .  A
C49          C66   1.423   1_655  A
C50          C65   1.421       .  A
C50          C58   1.387       .  A
C51          C63   1.423       .  A
C51          C59   1.387       .  A
C52          C66   1.421   1_556  A
C52          C60   1.387       .  A
C53          C61   1.388   1_554  A
C53          C64   1.426       .  A
C54          C62   1.387   1_554  A
C54          C65   1.423       .  A
C55          C56   1.377       .  A
C55          H67   1.082   1_655  S
C56          H68   1.082       .  S
C57          C58   1.377       .  A
C57          H69   1.082   1_655  S
C58          H70   1.082       .  S
C59          C60   1.375       .  A
C59          H71   1.082       .  S
C60          H72   1.082       .  S
C61          C62   1.377       .  A
C61          H73   1.082       .  S
C62          H74   1.083       .  S
C64         C421   1.487       .  S
C65         C119   1.491       .  S
C77          N78   1.362       .  A
C77          N82   1.345       .  A
C77         C988   1.471       .  S
N78          C79   1.367       .  A
C79          N80   1.368       .  A
C79         C105   1.493       .  S
N80          C81   1.364       .  A
C81          N82   1.347       .  A
C81         C974   1.474   1_565  S
N83          C88   1.355       .  A
N83          C87   1.356   1_554  A
N83         H115   1.035       .  S
N84          C91   1.355       .  A
N84          C92   1.355       .  A
N85          C90   1.356   1_556  A
N85          C89   1.356       .  A
N85         H116   1.035   1_556  S
N86          C93   1.356       .  A
N86          C94   1.357       .  A
C87          C95   1.388       .  A
C87         C103   1.421       .  A
C88         C104   1.420       .  A
C88          C96   1.387       .  A
C89          C97   1.388       .  A
C89         C106   1.422       .  A
C90         C105   1.421       .  A
C90          C98   1.387       .  A
C91         C103   1.421       .  A
C91          C99   1.387       .  A
C92         C106   1.422       .  A
C92         C100   1.387       .  A
C93         C101   1.387       .  A
C93         C104   1.423       .  A
C94         C102   1.387       .  A
C94         C105   1.423       .  A
C95          C96   1.377   1_556  A
C95         H107   1.082       .  S
C96         H108   1.082       .  S
C97          C98   1.378   1_556  A
C97         H109   1.082       .  S
C98         H110   1.082       .  S
C99         C100   1.375       .  A
C99         H111   1.082       .  S
C100        H112   1.082       .  S
C101        C102   1.377       .  A
C101        H113   1.082       .  S
C102        H114   1.082       .  S
C103        C227   1.490       .  S
C106        C385   1.488       .  S
C117        N118   1.362       .  A
C117        N122   1.347   1_556  A
C117        C946   1.469       .  S
N118        C119   1.367   1_556  A
C119        N120   1.366       .  A
N120        C121   1.362       .  A
C121        N122   1.348       .  A
C121        C960   1.469       .  S
O123        C138   1.272       .  A
O123       Al131   1.945       .  S
C124       C1047   1.486       .  S
C124        O134   1.274       .  A
C124        O125   1.257       .  A
O125       Al127   1.876       .  S
O126        C128   1.272       .  A
O126       Al127   1.948       .  S
Al127       O135   1.950       .  S
Al127       O137   1.875       .  S
Al127       O136   1.763       .  S
C128        C918   1.482       .  S
C128        O141   1.258       .  A
O129        C139   1.272       .  A
O129       Al131   1.954       .  S
O130        C143   1.275       .  A
O130       Al140   1.970       .  S
Al131       O144   1.868       .  S
Al131       O141   1.874       .  S
Al131       O136   1.764       .  S
O132        C139   1.257       .  A
O132       Al140   1.871       .  S
O133        C142   1.260       .  A
O133       Al140   1.879       .  S
O134       Al140   1.960       .  S
O135        C142   1.271       .  A
O136       Al140   1.764       .  S
O137        C138   1.257       .  A
C138        C907   1.481       .  S
C139       C1159   1.476       .  S
C142        C932   1.487       .  S
C143        C991   1.485       .  S
C143        O144   1.255       .  A
C145        N146   1.345       .  A
C145        N150   1.362       .  A
C145        C890   1.483       .  S
N146        C147   1.345       .  A
C147        N148   1.363       .  A
C147        C921   1.482       .  S
N148        C149   1.367       .  A
C149        N150   1.367       .  A
C149        C444   1.488       .  S
O151        C166   1.257       .  A
O151       Al159   1.869       .  S
C152        C876   1.486       .  S
C152        O162   1.259       .  A
C152        O153   1.271       .  A
O153       Al155   1.945       .  S
O154        C156   1.258       .  A
O154       Al155   1.879       .  S
Al155       O163   1.881       .  S
Al155       O165   1.954       .  S
Al155       O164   1.766       .  S
C156        C963   1.480       .  S
C156        O169   1.270       .  A
O157        C167   1.257       .  A
O157       Al159   1.871       .  S
O158        C171   1.259       .  A
O158       Al168   1.879       .  S
Al159       O172   1.944       .  S
Al159       O169   1.944       .  S
Al159       O164   1.764       .  S
O160        C167   1.272       .  A
O160       Al168   1.957       .  S
O161        C170   1.271       .  A
O161       Al168   1.948       .  S
O162       Al168   1.877       .  S
O163        C170   1.260       .  A
O164       Al168   1.765       .  S
O165        C166   1.272       .  A
C166        C893   1.486       .  S
C167        C977   1.486       .  S
C170       C1187   1.486       .  S
C171        C862   1.482       .  S
C171        O172   1.270       .  A
C173        N174   1.346       .  A
C173        N178   1.361       .  A
C173        C865   1.471       .  S
N174        C175   1.346       .  A
C175        N176   1.365       .  A
C175        C848   1.479       .  S
N176        C177   1.368       .  A
C177        N178   1.365       .  A
C177        C478   1.492       .  S
C179        N180   1.348       .  A
C179        N184   1.361       .  A
C179        C834   1.469       .  S
N180        C181   1.347   1_655  A
C181        N182   1.362       .  A
C181        C820   1.469       .  S
N182        C183   1.366   1_455  A
C183        N184   1.365       .  A
C183        C207   1.489       .  S
N185        C190   1.356       .  A
N185        C189   1.358       .  A
N185        H217   1.029       .  S
N186        C193   1.355       .  A
N186        C194   1.354       .  A
N187        C192   1.358       .  A
N187        C191   1.356       .  A
N187        H218   1.033   1_545  S
N188        C195   1.353       .  A
N188        C196   1.354       .  A
C189        C197   1.388       .  A
C189        C205   1.427       .  A
C190        C206   1.427       .  A
C190        C198   1.388       .  A
C191        C199   1.388       .  A
C191        C208   1.422       .  A
C192        C207   1.423       .  A
C192        C200   1.387       .  A
C193        C205   1.422       .  A
C193        C201   1.387       .  A
C194        C208   1.420   1_565  A
C194        C202   1.387       .  A
C195        C203   1.388       .  A
C195        C206   1.420       .  A
C196        C204   1.386       .  A
C196        C207   1.418   1_565  A
C197        C198   1.379       .  A
C197        H209   1.082       .  S
C198        H210   1.082       .  S
C199        C200   1.377       .  A
C199        H211   1.082       .  S
C200        H212   1.082       .  S
C201        C202   1.375       .  A
C201        H213   1.082       .  S
C202        H214   1.082       .  S
C203        C204   1.374       .  A
C203        H215   1.082       .  S
C204        H216   1.082       .  S
C205        C341   1.493       .  S
C206        C381   1.486       .  S
C208        C393   1.486       .  S
C219        N220   1.363       .  A
C219        N224   1.350       .  A
C219        C809   1.474       .  S
N220        C221   1.366       .  A
C221        N222   1.365       .  A
C221        C512   1.492       .  S
N222        C223   1.361       .  A
C223        N224   1.349       .  A
C223        C792   1.471       .  S
C225        N226   1.362       .  A
C225        N230   1.346       .  A
C225        C764   1.470       .  S
N226        C227   1.366       .  A
C227        N228   1.366       .  A
N228        C229   1.362       .  A
C229        N230   1.347       .  A
C229        C778   1.478   1_565  S
O231        C246   1.259       .  A
O231       Al239   1.879       .  S
C232        C806   1.486       .  S
C232        O242   1.258       .  A
C232        O233   1.271       .  A
O233       Al235   1.951       .  S
O234        C236   1.260       .  A
O234       Al235   1.876       .  S
Al235       O243   1.874       .  S
Al235       O245   1.943       .  S
Al235       O244   1.765       .  S
C236        C750   1.487       .  S
C236        O249   1.271       .  A
O237        C247   1.259       .  A
O237       Al239   1.880       .  S
O238        C251   1.260       .  A
O238       Al248   1.881       .  S
Al239       O252   1.949       .  S
Al239       O249   1.950       .  S
Al239       O244   1.768       .  S
O240        C247   1.269       .  A
O240       Al248   1.937       .  S
O241        C250   1.271       .  A
O241       Al248   1.950       .  S
O242       Al248   1.881       .  S
O243        C250   1.258       .  A
O244       Al248   1.766       .  S
O245        C246   1.270       .  A
C246        C781   1.485       .  S
C247       C1114   1.485       .  S
C250        C823   1.483       .  S
C251       C1089   1.490       .  S
C251        O252   1.270       .  A
C253        N254   1.360       .  A
C253        N258   1.348       .  A
C253        C753   1.477       .  S
N254        C255   1.364       .  A
C255        N256   1.366       .  A
C255        C477   1.488       .  S
N256        C257   1.363       .  A
C257        N258   1.347       .  A
C257        C739   1.476       .  S
O259        C274   1.272       .  A
O259       Al267   1.957       .  S
C260        C837   1.480       .  S
C260        O270   1.269       .  A
C260        O261   1.258       .  A
O261       Al263   1.879       .  S
O262        C264   1.272       .  A
O262       Al263   1.946       .  S
Al263       O271   1.948       .  S
Al263       O273   1.872       .  S
Al263       O272   1.765       .  S
C264        C708   1.482       .  S
C264        O277   1.260       .  A
O265        C275   1.273       .  A
O265       Al267   1.957       .  S
O266        C279   1.270       .  A
O266       Al276   1.940       .  S
Al267       O280   1.880       .  S
Al267       O277   1.880       .  S
Al267       O272   1.768       .  S
O268        C275   1.259       .  A
O268       Al276   1.880       .  S
O269        C278   1.258       .  A
O269       Al276   1.875       .  S
O270       Al276   1.937       .  S
O271        C278   1.272       .  A
O272       Al276   1.765       .  S
O273        C274   1.256       .  A
C274        C736   1.488       .  S
C275        C949   1.481       .  S
C278       C1173   1.481       .  S
C279        C722   1.480       .  S
C279        O280   1.260       .  A
C281        N282   1.347       .  A
C281        N286   1.362       .  A
C281        C694   1.469       .  S
N282        C283   1.346       .  A
C283        N284   1.361       .  A
C283        C725   1.468       .  S
N284        C285   1.364       .  A
C285        N286   1.365       .  A
C285        C445   1.486       .  S
O287        C302   1.258       .  A
O287       Al295   1.875       .  S
C288        C638   1.479       .  S
C288        O298   1.258       .  A
C288        O289   1.271       .  A
O289       Al291   1.947       .  S
O290        C292   1.257       .  A
O290       Al291   1.874       .  S
Al291       O299   1.877       .  S
Al291       O301   1.949       .  S
Al291       O300   1.765       .  S
C292        C697   1.482       .  S
C292        O305   1.272       .  A
O293        C303   1.260       .  A
O293       Al295   1.879       .  S
O294        C307   1.258       .  A
O294       Al304   1.872       .  S
Al295       O308   1.948       .  S
Al295       O305   1.951       .  S
Al295       O300   1.767       .  S
O296        C303   1.272       .  A
O296       Al304   1.953       .  S
O297        C306   1.272       .  A
O297       Al304   1.953       .  S
O298       Al304   1.877       .  S
O299        C306   1.258       .  A
O300       Al304   1.764       .  S
O301        C302   1.271       .  A
C302        C652   1.483       .  S
C303       C1033   1.486       .  S
C306        C666   1.483       .  S
C307        C680   1.483       .  S
C307        O308   1.271       .  A
C309        N310   1.347       .  A
C309        N314   1.362       .  A
C309        C627   1.474       .  S
N310        C311   1.346       .  A
C311        N312   1.361       .  A
C311        C641   1.466       .  S
N312        C313   1.365       .  A
C313        N314   1.366       .  A
C313        C480   1.488       .  S
O315        C330   1.271       .  A
O315       Al323   1.953       .  S
C316        C613   1.488       .  S
C316        O326   1.271       .  A
C316        O317   1.259       .  A
O317       Al319   1.878       .  S
O318        C320   1.273       .  A
O318       Al319   1.961       .  S
Al319       O327   1.950       .  S
Al319       O329   1.885       .  S
Al319       O328   1.767       .  S
C320       C1131   1.483       .  S
C320        O333   1.257       .  A
O321        C331   1.269       .  A
O321       Al323   1.946       .  S
O322        C335   1.273       .  A
O322       Al332   1.953       .  S
Al323       O336   1.873       .  S
Al323       O333   1.867       .  S
Al323       O328   1.763       .  S
O324        C331   1.258       .  A
O324       Al332   1.881       .  S
O325        C334   1.256       .  A
O325       Al332   1.869       .  S
O326       Al332   1.950       .  S
O327        C334   1.273       .  A
O328       Al332   1.765       .  S
O329        C330   1.259       .  A
C330       C1019   1.486       .  S
C331        C624   1.486       .  S
C334        C599   1.484       .  S
C335        C767   1.483       .  S
C335        O336   1.260       .  A
C337        N338   1.347   1_455  A
C337        N342   1.365       .  A
C337        C582   1.479       .  S
N338        C339   1.346       .  A
C339        N340   1.361       .  A
C339        C935   1.473       .  S
N340        C341   1.365       .  A
C341        N342   1.369   1_655  A
O343        C358   1.257       .  A
O343       Al351   1.875       .  S
C344        C568   1.480       .  S
C344        O354   1.258       .  A
C344        O345   1.271       .  A
O345       Al347   1.946       .  S
O346        C348   1.252       .  A
O346       Al347   1.862       .  S
Al347       O355   1.876       .  S
Al347       O357   1.954       .  S
Al347       O356   1.762       .  S
C348        C554   1.485       .  S
C348        O361   1.274       .  A
O349        C359   1.258       .  A
O349       Al351   1.879       .  S
O350        C363   1.258       .  A
O350       Al360   1.870       .  S
Al351       O364   1.960       .  S
Al351       O361   1.963       .  S
Al351       O356   1.766       .  S
O352        C359   1.272       .  A
O352       Al360   1.955       .  S
O353        C362   1.273       .  A
O353       Al360   1.959       .  S
O354       Al360   1.871       .  S
O355        C362   1.259       .  A
O356       Al360   1.762       .  S
O357        C358   1.273       .  A
C358        C585   1.487       .  S
C359       C1145   1.486       .  S
C362       C1002   1.486       .  S
C363       C1061   1.485       .  S
C363        O364   1.275       .  A
C365        N366   1.361       .  A
C365        N370   1.346       .  A
C365        C540   1.471       .  S
N366        C367   1.366       .  A
C367        N368   1.363       .  A
C367        C443   1.486       .  S
N368        C369   1.360       .  A
C369        N370   1.348       .  A
C369        C571   1.478       .  S
C371        N372   1.346       .  A
C371        N376   1.362       .  A
C371        C557   1.469       .  S
N372        C373   1.346       .  A
C373        N374   1.363       .  A
C373        C610   1.473       .  S
N374        C375   1.367       .  A
C375        N376   1.366       .  A
C375        C513   1.490       .  S
C377        N378   1.346   1_455  A
C377        N382   1.361       .  A
C377        C596   1.470       .  S
N378        C379   1.346       .  A
C379        N380   1.361       .  A
C379        C683   1.473       .  S
N380        C381   1.366       .  A
C381        N382   1.366   1_655  A
C383        N384   1.362       .  A
C383        N388   1.349       .  A
C383        C669   1.471       .  S
N384        C385   1.366       .  A
C385        N386   1.364       .  A
N386        C387   1.360       .  A
C387        N388   1.349       .  A
C387        C711   1.469   1_565  S
C389        N390   1.345   1_455  A
C389        N394   1.360       .  A
C389        C529   1.468       .  S
N390        C391   1.347       .  A
C391        N392   1.362       .  A
C391        C879   1.476       .  S
N392        C393   1.366       .  A
C393        N394   1.365   1_655  A
O395        C410   1.274       .  A
O395       Al403   1.963       .  S
C396        C526   1.486       .  S
C396        O406   1.273       .  A
C396        O397   1.255       .  A
O397       Al399   1.870       .  S
O398        C400   1.272       .  A
O398       Al399   1.950       .  S
Al399       O407   1.953       .  S
Al399       O409   1.871       .  S
Al399       O408   1.760       .  S
C400       C1075   1.483       .  S
C400        O413   1.256       .  A
O401        C411   1.272       .  A
O401       Al403   1.949       .  S
O402        C415   1.272       .  A
O402       Al412   1.955       .  S
Al403       O416   1.878       .  S
Al403       O413   1.875       .  S
Al403       O408   1.765       .  S
O404        C411   1.260       .  A
O404       Al412   1.877       .  S
O405        C414   1.260       .  A
O405       Al412   1.882       .  S
O406       Al412   1.959       .  S
O407        C414   1.272       .  A
O408       Al412   1.768       .  S
O409        C410   1.257       .  A
C410        C851   1.490       .  S
C411       C1100   1.483       .  S
C414        C795   1.483       .  S
C415        C543   1.487       .  S
C415        O416   1.259       .  A
C417        N418   1.346   1_556  A
C417        N422   1.360       .  A
C417        C655   1.466       .  S
N418        C419   1.347       .  A
C419        N420   1.362       .  A
C419        C904   1.470       .  S
N420        C421   1.366       .  A
C421        N422   1.364   1_554  A
N423        C428   1.356       .  A
N423        C427   1.354       .  A
N423        H455   1.034       .  S
N424        C431   1.355   1_556  A
N424        C432   1.355       .  A
N425        C430   1.356       .  A
N425        C429   1.356       .  A
N425        H456   1.033       .  S
N426        C433   1.355       .  A
N426        C434   1.354   1_554  A
C427        C435   1.388       .  A
C427        C443   1.420       .  A
C428        C444   1.420       .  A
C428        C436   1.387       .  A
C429        C437   1.387       .  A
C429        C446   1.422       .  A
C430        C445   1.422       .  A
C430        C438   1.388       .  A
C431        C443   1.420       .  A
C431        C439   1.387       .  A
C432        C446   1.421       .  A
C432        C440   1.387       .  A
C433        C441   1.386       .  A
C433        C444   1.419       .  A
C434        C442   1.388       .  A
C434        C445   1.421       .  A
C435        C436   1.377       .  A
C435        H447   1.082       .  S
C436        H448   1.082       .  S
C437        C438   1.379       .  A
C437        H449   1.082       .  S
C438        H450   1.082       .  S
C439        C440   1.374   1_554  A
C439        H451   1.082       .  S
C440        H452   1.082       .  S
C441        C442   1.375   1_554  A
C441        H453   1.082       .  S
C442        H454   1.082       .  S
N457        C462   1.357       .  A
N457        C461   1.357       .  A
N457        H489   1.031   1_545  S
N458        C465   1.354       .  A
N458        C466   1.354       .  A
N459        C464   1.357       .  A
N459        C463   1.357       .  A
N459        H490   1.034       .  S
N460        C467   1.355       .  A
N460        C468   1.355       .  A
C461        C469   1.388       .  A
C461        C477   1.425       .  A
C462        C478   1.425       .  A
C462        C470   1.388       .  A
C463        C471   1.387       .  A
C463        C480   1.421       .  A
C464        C479   1.423       .  A
C464        C472   1.388       .  A
C465        C477   1.422   1_565  A
C465        C473   1.388       .  A
C466        C480   1.420       .  A
C466        C474   1.386       .  A
C467        C475   1.387       .  A
C467        C478   1.424   1_565  A
C468        C476   1.387       .  A
C468        C479   1.422       .  A
C469        C470   1.378       .  A
C469        H481   1.082       .  S
C470        H482   1.082       .  S
C471        C472   1.376       .  A
C471        H483   1.082       .  S
C472        H484   1.082       .  S
C473        C474   1.373       .  A
C473        H485   1.082       .  S
C474        H486   1.082       .  S
C475        C476   1.375       .  A
C475        H487   1.082       .  S
C476        H488   1.083       .  S
N491        C496   1.358       .  A
N491        C495   1.357       .  A
N491        H523   1.021       .  S
N492        C499   1.354       .  A
N492        C500   1.355       .  A
N493        C498   1.357   1_655  A
N493        C497   1.359       .  A
N493        H524   1.019       .  S
N494        C501   1.355       .  A
N494        C502   1.354       .  A
C495        C503   1.388       .  A
C495        C511   1.427       .  A
C496        C512   1.427   1_655  A
C496        C504   1.388       .  A
C497        C505   1.387       .  A
C497        C514   1.429       .  A
C498        C513   1.429       .  A
C498        C506   1.389   1_455  A
C499        C511   1.422       .  A
C499        C507   1.387       .  A
C500        C514   1.423       .  A
C500        C508   1.387       .  A
C501        C509   1.387       .  A
C501        C512   1.423       .  A
C502        C510   1.388       .  A
C502        C513   1.424       .  A
C503        C504   1.378       .  A
C503        H515   1.083       .  S
C504        H516   1.082   1_655  S
C505        C506   1.380       .  A
C505        H517   1.082       .  S
C506        H518   1.082   1_655  S
C507        C508   1.374       .  A
C507        H519   1.082       .  S
C508        H520   1.082       .  S
C509        C510   1.375       .  A
C509        H521   1.082       .  S
C510        H522   1.082       .  S
C525        C526   1.404       .  A
C525        C530   1.399       .  A
C525        H532   1.084       .  S
C526        C527   1.426       .  A
C527        C528   1.400       .  A
C527        N534   1.433       .  S
C528        C529   1.396       .  A
C528        H533   1.084       .  S
C529        C530   1.408       .  A
C530        N531   1.433       .  S
N531        H535   1.046       .  S
N531        H536   1.045       .  S
N534        H537   1.045       .  S
N534        H538   1.045       .  S
C539        C540   1.403       .  A
C539        C544   1.400       .  A
C539        H546   1.085       .  S
C540        C541   1.408       .  A
C541        C542   1.401       .  A
C541        N548   1.432       .  S
C542        C543   1.411       .  A
C542        H547   1.084       .  S
C543        C544   1.413       .  A
C544        N545   1.433       .  S
N545        H549   1.045       .  S
N545        H550   1.046       .  S
N548        H551   1.046       .  S
N548        H552   1.045       .  S
C553        C554   1.403       .  A
C553        C558   1.399       .  A
C553        H560   1.084       .  S
C554        C555   1.428       .  A
C555        C556   1.399       .  A
C555        N562   1.433       .  S
C556        C557   1.396       .  A
C556        H561   1.084       .  S
C557        C558   1.409       .  A
C558        N559   1.433       .  S
N559        H563   1.046       .  S
N559        H564   1.046       .  S
N562        H565   1.046       .  S
N562        H566   1.044       .  S
C567        C568   1.410       .  A
C567        C572   1.398       .  A
C567        H574   1.084       .  S
C568        C569   1.407       .  A
C569        C570   1.397       .  A
C569        N576   1.433       .  S
C570        C571   1.408       .  A
C570        H575   1.084       .  S
C571        C572   1.412       .  A
C572        N573   1.432       .  S
N573        H577   1.045       .  S
N573        H578   1.045       .  S
N576        H579   1.045       .  S
N576        H580   1.046       .  S
C581        C582   1.400       .  A
C581        C586   1.407       .  A
C581        H588   1.084       .  S
C582        C583   1.413       .  A
C583        C584   1.399       .  A
C583        N590   1.433       .  S
C584        C585   1.402       .  A
C584        H589   1.084       .  S
C585        C586   1.420       .  A
C586        N587   1.433       .  S
N587        H591   1.046       .  S
N587        H592   1.045       .  S
N590        H593   1.046       .  S
N590        H594   1.045   1_455  S
C595        C596   1.398       .  A
C595        C600   1.406       .  A
C595        H602   1.084       .  S
C596        C597   1.410       .  A
C597        C598   1.396       .  A
C597        N604   1.433       .  S
C598        C599   1.401       .  A
C598        H603   1.084       .  S
C599        C600   1.421       .  A
C600        N601   1.433       .  S
N601        H605   1.046       .  S
N601        H606   1.046       .  S
N604        H607   1.045   1_455  S
N604        H608   1.046       .  S
C609        C610   1.404       .  A
C609        C614   1.396       .  A
C609        H616   1.085       .  S
C610        C611   1.408       .  A
C611        C612   1.401       .  A
C611        N618   1.432       .  S
C612        C613   1.412       .  A
C612        H617   1.084       .  S
C613        C614   1.418       .  A
C614        N615   1.433       .  S
N615        H619   1.045       .  S
N615        H620   1.045       .  S
N618        H621   1.045       .  S
N618        H622   1.046       .  S
C623        C624   1.411       .  A
C623        C628   1.407       .  A
C623        H630   1.083       .  S
C624        C625   1.412       .  A
C625        C626   1.399       .  A
C625        N632   1.433       .  S
C626        C627   1.404       .  A
C626        H631   1.084       .  S
C627        C628   1.407       .  A
C628        N629   1.438       .  S
N629        H633   1.046       .  S
N629        H634   1.045       .  S
N632        H635   1.046       .  S
N632        H636   1.045       .  S
C637        C638   1.404       .  A
C637        C642   1.398       .  A
C637        H644   1.084       .  S
C638        C639   1.416       .  A
C639        C640   1.404       .  A
C639        N646   1.433       .  S
C640        C641   1.399       .  A
C640        H645   1.084       .  S
C641        C642   1.407       .  A
C642        N643   1.433       .  S
N643        H647   1.045       .  S
N643        H648   1.046       .  S
N646        H649   1.046       .  S
N646        H650   1.045       .  S
C651        C652   1.411       .  A
C651        C656   1.399       .  A
C651        H658   1.084       .  S
C652        C653   1.412       .  A
C653        C654   1.399       .  A
C653        N660   1.433       .  S
C654        C655   1.402       .  A
C654        H659   1.085       .  S
C655        C656   1.407       .  A
C656        N657   1.433       .  S
N657        H661   1.046       .  S
N657        H662   1.045       .  S
N660        H663   1.045       .  S
N660        H664   1.046       .  S
C665        C666   1.404       .  A
C665        C670   1.404       .  A
C665        H672   1.084       .  S
C666        C667   1.415       .  A
C667        C668   1.404       .  A
C667        N674   1.433       .  S
C668        C669   1.399       .  A
C668        H673   1.084       .  S
C669        C670   1.411       .  A
C670        N671   1.438       .  S
N671        H675   1.045       .  S
N671        H676   1.046       .  S
N674        H677   1.046       .  S
N674        H678   1.045       .  S
C679        C680   1.412       .  A
C679        C684   1.400       .  A
C679        H686   1.084       .  S
C680        C681   1.409       .  A
C681        C682   1.397       .  A
C681        N688   1.433       .  S
C682        C683   1.405       .  A
C682        H687   1.084       .  S
C683        C684   1.408       .  A
C684        N685   1.432       .  S
N685        H689   1.046       .  S
N685        H690   1.045       .  S
N688        H691   1.045       .  S
N688        H692   1.046       .  S
C693        C694   1.399       .  A
C693        C698   1.405       .  A
C693        H700   1.084       .  S
C694        C695   1.408       .  A
C695        C696   1.398       .  A
C695        N702   1.433       .  S
C696        C697   1.403       .  A
C696        H701   1.084       .  S
C697        C698   1.418       .  A
C698        N699   1.433       .  S
N699        H703   1.045       .  S
N699        H704   1.046       .  S
N702        H705   1.046       .  S
N702        H706   1.046       .  S
C707        C708   1.404       .  A
C707        C712   1.399       .  A
C707        H714   1.084       .  S
C708        C709   1.416       .  A
C709        C710   1.404       .  A
C709        N716   1.432       .  S
C710        C711   1.399       .  A
C710        H715   1.084       .  S
C711        C712   1.408       .  A
C712        N713   1.433   1_545  S
N713        H717   1.046       .  S
N713        H718   1.045   1_565  S
N716        H719   1.046       .  S
N716        H720   1.046       .  S
C721        C722   1.405       .  A
C721        C726   1.402       .  A
C721        H728   1.084       .  S
C722        C723   1.414       .  A
C723        C724   1.401       .  A
C723        N730   1.432       .  S
C724        C725   1.398       .  A
C724        H729   1.084       .  S
C725        C726   1.412       .  A
C726        N727   1.439       .  S
N727        H731   1.045       .  S
N727        H732   1.046       .  S
N730        H733   1.045       .  S
N730        H734   1.046       .  S
C735        C736   1.404       .  A
C735        C740   1.403       .  A
C735        H742   1.083       .  S
C736        C737   1.422       .  A
C737        C738   1.407       .  A
C737        N744   1.438       .  S
C738        C739   1.398       .  A
C738        H743   1.084       .  S
C739        C740   1.414       .  A
C740        N741   1.439       .  S
N741        H745   1.046       .  S
N741        H746   1.045       .  S
N744        H747   1.046       .  S
N744        H748   1.045       .  S
C749        C750   1.411       .  A
C749        C754   1.398       .  A
C749        H756   1.083       .  S
C750        C751   1.414       .  A
C751        C752   1.403       .  A
C751        N758   1.438       .  S
C752        C753   1.406       .  A
C752        H757   1.084       .  S
C753        C754   1.409       .  A
C754        N755   1.432       .  S
N755        H759   1.045       .  S
N755        H760   1.046       .  S
N758        H761   1.046       .  S
N758        H762   1.045       .  S
C763        C764   1.403       .  A
C763        C768   1.399       .  A
C763        H770   1.084       .  S
C764        C765   1.406       .  A
C765        C766   1.407       .  A
C765        N772   1.437       .  S
C766        C767   1.411       .  A
C766        H771   1.083       .  S
C767        C768   1.410       .  A
C768        N769   1.433       .  S
N769        H773   1.046       .  S
N769        H774   1.045       .  S
N772        H775   1.046       .  S
N772        H776   1.045       .  S
C777        C778   1.406       .  A
C777        C782   1.397       .  A
C777        H784   1.084   1_545  S
C778        C779   1.408       .  A
C779        C780   1.408       .  A
C779        N786   1.437       .  S
C780        C781   1.412       .  A
C780        H785   1.083       .  S
C781        C782   1.409       .  A
C782        N783   1.433       .  S
N783        H787   1.046       .  S
N783        H788   1.045       .  S
N786        H789   1.046       .  S
N786        H790   1.046       .  S
C791        C792   1.400       .  A
C791        C796   1.406       .  A
C791        H798   1.084       .  S
C792        C793   1.407       .  A
C793        C794   1.400       .  A
C793        N800   1.433       .  S
C794        C795   1.404       .  A
C794        H799   1.084       .  S
C795        C796   1.415       .  A
C796        N797   1.432       .  S
N797        H801   1.045       .  S
N797        H802   1.046       .  S
N800        H803   1.046       .  S
N800        H804   1.045       .  S
C805        C806   1.405       .  A
C805        C810   1.401       .  A
C805        H812   1.084       .  S
C806        C807   1.417       .  A
C807        C808   1.406       .  A
C807        N814   1.433       .  S
C808        C809   1.399       .  A
C808        H813   1.084       .  S
C809        C810   1.409       .  A
C810        N811   1.433       .  S
N811        H815   1.045       .  S
N811        H816   1.046       .  S
N814        H817   1.046       .  S
N814        H818   1.045       .  S
C819        C820   1.398       .  A
C819        C824   1.403       .  A
C819        H826   1.084       .  S
C820        C821   1.409       .  A
C821        C822   1.401       .  A
C821        N828   1.433       .  S
C822        C823   1.405       .  A
C822        H827   1.084       .  S
C823        C824   1.417       .  A
C824        N825   1.433       .  S
N825        H829   1.046       .  S
N825        H830   1.045       .  S
N828        H831   1.046       .  S
N828        H832   1.045       .  S
C833        C834   1.400       .  A
C833        C838   1.408       .  A
C833        H840   1.084       .  S
C834        C835   1.410       .  A
C835        C836   1.399       .  A
C835        N842   1.439       .  S
C836        C837   1.403       .  A
C836        H841   1.084       .  S
C837        C838   1.417       .  A
C838        N839   1.438       .  S
N839        H843   1.046       .  S
N839        H844   1.046       .  S
N842        H845   1.045       .  S
N842        H846   1.046       .  S
C847        C848   1.397       .  A
C847        C852   1.403       .  A
C847        H854   1.084       .  S
C848        C849   1.417       .  A
C849        C850   1.405       .  A
C849        N856   1.439       .  S
C850        C851   1.403       .  A
C850        H855   1.083       .  S
C851        C852   1.420       .  A
C852        N853   1.433       .  S
N853        H857   1.046       .  S
N853        H858   1.046       .  S
N856        H859   1.045       .  S
N856        H860   1.046       .  S
C861        C862   1.411       .  A
C861        C866   1.401       .  A
C861        H868   1.084       .  S
C862        C863   1.411       .  A
C863        C864   1.397       .  A
C863        N870   1.433       .  S
C864        C865   1.403       .  A
C864        H869   1.085       .  S
C865        C866   1.409       .  A
C866        N867   1.432       .  S
N867        H871   1.045       .  S
N867        H872   1.045       .  S
N870        H873   1.045       .  S
N870        H874   1.046       .  S
C875        C876   1.412       .  A
C875        C880   1.400       .  A
C875        H882   1.084       .  S
C876        C877   1.414       .  A
C877        C878   1.401       .  A
C877        N884   1.438       .  S
C878        C879   1.406       .  A
C878        H883   1.084       .  S
C879        C880   1.409       .  A
C880        N881   1.432       .  S
N881        H885   1.045       .  S
N881        H886   1.046       .  S
N884        H887   1.046       .  S
N884        H888   1.046       .  S
C889        C890   1.410       .  A
C889        C894   1.394       .  A
C889        H896   1.084       .  S
C890        C891   1.409       .  A
C891        C892   1.400       .  A
C891        N898   1.432       .  S
C892        C893   1.414       .  A
C892        H897   1.084       .  S
C893        C894   1.412       .  A
C894        N895   1.433       .  S
N895        H899   1.045       .  S
N895        H900   1.045       .  S
N898        H901   1.045       .  S
N898        H902   1.046       .  S
C903        C904   1.399       .  A
C903        C908   1.406       .  A
C903        H910   1.084       .  S
C904        C905   1.410       .  A
C905        C906   1.396       .  A
C905        N912   1.433       .  S
C906        C907   1.402       .  A
C906        H911   1.084       .  S
C907        C908   1.418       .  A
C908        N909   1.433       .  S
N909        H913   1.045       .  S
N909        H914   1.046       .  S
N912        H915   1.045       .  S
N912        H916   1.046       .  S
C917        C918   1.413       .  A
C917        C922   1.408       .  A
C917        H924   1.083       .  S
C918        C919   1.405       .  A
C919        C920   1.396       .  A
C919        N926   1.433       .  S
C920        C921   1.410       .  A
C920        H925   1.084       .  S
C921        C922   1.408       .  A
C922        N923   1.437       .  S
N923        H927   1.045       .  S
N923        H928   1.046       .  S
N926        H929   1.046       .  S
N926        H930   1.045       .  S
C931        C932   1.411       .  A
C931        C936   1.407       .  A
C931        H938   1.083       .  S
C932        C933   1.412       .  A
C933        C934   1.400       .  A
C933        N940   1.433       .  S
C934        C935   1.404       .  A
C934        H939   1.084       .  S
C935        C936   1.406       .  A
C936        N937   1.438       .  S
N937        H941   1.046       .  S
N937        H942   1.045       .  S
N940        H943   1.046       .  S
N940        H944   1.045       .  S
C945        C946   1.400       .  A
C945        C950   1.406       .  A
C945        H952   1.084       .  S
C946        C947   1.407       .  A
C947        C948   1.401       .  A
C947        N954   1.433       .  S
C948        C949   1.404       .  A
C948        H953   1.084       .  S
C949        C950   1.414       .  A
C950        N951   1.432       .  S
N951        H955   1.045       .  S
N951        H956   1.046       .  S
N954        H957   1.046       .  S
N954        H958   1.045       .  S
C959        C960   1.400       .  A
C959        C964   1.406       .  A
C959        H966   1.084       .  S
C960        C961   1.408       .  A
C961        C962   1.398       .  A
C961        N968   1.433       .  S
C962        C963   1.403       .  A
C962        H967   1.084       .  S
C963        C964   1.416       .  A
C964        N965   1.433       .  S
N965        H969   1.046       .  S
N965        H970   1.045       .  S
N968        H971   1.046       .  S
N968        H972   1.046       .  S
C973        C974   1.405       .  A
C973        C978   1.399       .  A
C973        H980   1.084       .  S
C974        C975   1.406       .  A
C975        C976   1.407       .  A
C975        N982   1.438       .  S
C976        C977   1.413       .  A
C976        H981   1.083       .  S
C977        C978   1.410       .  A
C978        N979   1.433       .  S
N979        H983   1.045       .  S
N979        H984   1.046       .  S
N982        H985   1.046       .  S
N982        H986   1.046       .  S
C987        C988   1.398       .  A
C987        C992   1.405       .  A
C987        H994   1.084       .  S
C988        C989   1.412       .  A
C989        C990   1.405       .  A
C989        N996   1.438       .  S
C990        C991   1.403       .  A
C990        H995   1.084       .  S
C991        C992   1.418       .  A
C992        N993   1.433       .  S
N993        H997   1.046       .  S
N993        H998   1.046       .  S
N996        H999   1.046       .  S
N996       H1000   1.046       .  S
C1001      C1002   1.411       .  A
C1001      C1006   1.405       .  A
C1001      H1008   1.084       .  S
C1002      C1003   1.408       .  A
C1003      C1004   1.404       .  A
C1003      N1010   1.438       .  S
C1004      C1005   1.412       .  A
C1004      H1009   1.083       .  S
C1005      C1006   1.408       .  A
C1006      N1007   1.432       .  S
N1007      H1011   1.046       .  S
N1007      H1012   1.045       .  S
N1010      H1013   1.046       .  S
N1010      H1014   1.046       .  S
C1015      C1016   1.400       .  A
C1015      C1020   1.406       .  A
C1015      H1022   1.084       .  S
C1016      C1017   1.411       .  A
C1017      C1018   1.404       .  A
C1017      N1024   1.438       .  S
C1018      C1019   1.405       .  A
C1018      H1023   1.084       .  S
C1019      C1020   1.415       .  A
C1020      N1021   1.432       .  S
N1021      H1025   1.045       .  S
N1021      H1026   1.046       .  S
N1024      H1027   1.046       .  S
N1024      H1028   1.046       .  S
C1029      C1030   1.412       .  A
C1029      C1034   1.403       .  A
C1029      H1036   1.083       .  S
C1030      C1031   1.411       .  A
C1031      C1032   1.409       .  A
C1031      N1038   1.438       .  S
C1032      C1033   1.411       .  A
C1032      H1037   1.083       .  S
C1033      C1034   1.408       .  A
C1034      N1035   1.438       .  S
N1035      H1039   1.046       .  S
N1035      H1040   1.046       .  S
N1038      H1041   1.046       .  S
N1038      H1042   1.045       .  S
C1043      C1044   1.399       .  A
C1043      C1048   1.407       .  A
C1043      H1050   1.084       .  S
C1044      C1045   1.411       .  A
C1045      C1046   1.402       .  A
C1045      N1052   1.438       .  S
C1046      C1047   1.403       .  A
C1046      H1051   1.083       .  S
C1047      C1048   1.418       .  A
C1048      N1049   1.433       .  S
N1049      H1053   1.046       .  S
N1049      H1054   1.045       .  S
N1052      H1055   1.046       .  S
N1052      H1056   1.045       .  S
C1057      C1058   1.398       .  A
C1057      C1062   1.408       .  A
C1057      H1064   1.084       .  S
C1058      C1059   1.409       .  A
C1059      C1060   1.399       .  A
C1059      N1066   1.432       .  S
C1060      C1061   1.402       .  A
C1060      H1065   1.084       .  S
C1061      C1062   1.422       .  A
C1062      N1063   1.438       .  S
N1063      H1067   1.046       .  S
N1063      H1068   1.045       .  S
N1066      H1069   1.046       .  S
N1066      H1070   1.044       .  S
C1071      C1072   1.400       .  A
C1071      C1076   1.407       .  A
C1071      H1078   1.084       .  S
C1072      C1073   1.410       .  A
C1073      C1074   1.397       .  A
C1073      N1080   1.432   1_545  S
C1074      C1075   1.401       .  A
C1074      H1079   1.084       .  S
C1075      C1076   1.419       .  A
C1076      N1077   1.433       .  S
N1077      H1081   1.045       .  S
N1077      H1082   1.046       .  S
N1080      H1083   1.045       .  S
N1080      H1084   1.046   1_565  S
C1085      C1086   1.410       .  A
C1085      C1090   1.394       .  A
C1085      H1092   1.084       .  S
C1086      C1087   1.408       .  A
C1087      C1088   1.410       .  A
C1087      N1094   1.437       .  S
C1088      C1089   1.414       .  A
C1088      H1093   1.083       .  S
C1089      C1090   1.414       .  A
C1090      N1091   1.433       .  S
N1091      H1095   1.045       .  S
N1091      H1096   1.045       .  S
N1094      H1097   1.046       .  S
N1094      H1098   1.046       .  S
C1099      C1100   1.413       .  A
C1099      C1104   1.408       .  A
C1099      H1106   1.083       .  S
C1100      C1101   1.407       .  A
C1101      C1102   1.396       .  A
C1101      N1108   1.433       .  S
C1102      C1103   1.407       .  A
C1102      H1107   1.084       .  S
C1103      C1104   1.408       .  A
C1104      N1105   1.438       .  S
N1105      H1109   1.045       .  S
N1105      H1110   1.046       .  S
N1108      H1111   1.046       .  S
N1108      H1112   1.046       .  S
C1113      C1114   1.412       .  A
C1113      C1118   1.402       .  A
C1113      H1120   1.084       .  S
C1114      C1115   1.413       .  A
C1115      C1116   1.398       .  A
C1115      N1122   1.439       .  S
C1116      C1117   1.406       .  A
C1116      H1121   1.084       .  S
C1117      C1118   1.410       .  A
C1118      N1119   1.432       .  S
N1119      H1123   1.045       .  S
N1119      H1124   1.046       .  S
N1122      H1125   1.046       .  S
N1122      H1126   1.046       .  S
C1127      C1128   1.411       .  A
C1127      C1132   1.401       .  A
C1127      H1134   1.084       .  S
C1128      C1129   1.402       .  A
C1129      C1130   1.401       .  A
C1129      N1136   1.432       .  S
C1130      C1131   1.412       .  A
C1130      H1135   1.083       .  S
C1131      C1132   1.407       .  A
C1132      N1133   1.433       .  S
N1133      H1137   1.046       .  S
N1133      H1138   1.045       .  S
N1136      H1139   1.045       .  S
N1136      H1140   1.046       .  S
C1141      C1142   1.399       .  A
C1141      C1146   1.408       .  A
C1141      H1148   1.084       .  S
C1142      C1143   1.412       .  A
C1143      C1144   1.402       .  A
C1143      N1150   1.439       .  S
C1144      C1145   1.404       .  A
C1144      H1149   1.083       .  S
C1145      C1146   1.420       .  A
C1146      N1147   1.438       .  S
N1147      H1151   1.046       .  S
N1147      H1152   1.046       .  S
N1150      H1153   1.046       .  S
N1150      H1154   1.045       .  S
C1155      C1156   1.398       .  A
C1155      C1160   1.404       .  A
C1155      H1162   1.084       .  S
C1156      C1157   1.408       .  A
C1157      C1158   1.402       .  A
C1157      N1164   1.438       .  S
C1158      C1159   1.404       .  A
C1158      H1163   1.084       .  S
C1159      C1160   1.416       .  A
C1160      N1161   1.438       .  S
N1161      H1165   1.045       .  S
N1161      H1166   1.046       .  S
N1164      H1167   1.046       .  S
N1164      H1168   1.045       .  S
C1169      C1170   1.399       .  A
C1169      C1174   1.404       .  A
C1169      H1176   1.084       .  S
C1170      C1171   1.411       .  A
C1171      C1172   1.402       .  A
C1171      N1178   1.438       .  S
C1172      C1173   1.403       .  A
C1172      H1177   1.084       .  S
C1173      C1174   1.416       .  A
C1174      N1175   1.433       .  S
N1175      H1179   1.045       .  S
N1175      H1180   1.046       .  S
N1178      H1181   1.046       .  S
N1178      H1182   1.045       .  S
C1183      C1184   1.408       .  A
C1183      C1188   1.398       .  A
C1183      H1190   1.084       .  S
C1184      C1185   1.411       .  A
C1185      C1186   1.409       .  A
C1185      N1192   1.438       .  S
C1186      C1187   1.412       .  A
C1186      H1191   1.083       .  S
C1187      C1188   1.408       .  A
C1188      N1189   1.433       .  S
N1189      H1193   1.046       .  S
N1189      H1194   1.046       .  S
N1192      H1195   1.046       .  S
N1192      H1196   1.046       .  S
