geometry optimzed in LAMMPS
_audit_creation_date              2020-11-30 
_audit_creation_method            'lammps2cif' 
_symmetry_space_group_name_H-M    'P1' 
_symmetry_Int_Tables_number       1 
_symmetry_cell_setting            triclinic 
loop_ 
_symmetry_equiv_pos_as_xyz 
  x,y,z 
_cell_length_a                    35.79180150446539 
_cell_length_b                    36.3825215157998 
_cell_length_c                    35.856027613564926 
_cell_angle_alpha                 90.23722322793775 
_cell_angle_beta                  89.85511262390357 
_cell_angle_gamma                 90.12934981128205 
loop_ 
_atom_site_label 
_atom_site_type_symbol 
_atom_site_fract_x 
_atom_site_fract_y 
_atom_site_fract_z 
_atom_site_charge 
C1          C  0.11844305  0.84317229  0.52953211     0.02050
C2          C  0.09893047  0.83727341  0.49530640     0.02050
C3          C  0.11816444  0.84810590  0.46222092     0.02050
C4          C  0.14300380  0.87949143  0.46402561     0.02050
C5          C  0.14974327  0.89646637  0.49980830     0.02050
C6          C  0.14171477  0.87515770  0.53251850     0.02050
C7          C  0.11500163  0.10660842  0.52698189     0.02050
C8          C  0.14386718  0.07967628  0.53181006     0.02050
C9          C  0.15707808  0.05835978  0.50077992     0.02050
C10         C  0.14806096  0.07196016  0.46473004     0.02050
C11         C  0.11872069  0.09805730  0.46063297     0.02050
C12         C  0.09751912  0.10914490  0.49162906     0.02050
C13         C  0.91899078  0.11468652  0.53217161     0.02050
C14         C  0.93376194  0.12478835  0.49632537     0.02050
C15         C  0.91123472  0.11517023  0.46531983     0.02050
C16         C  0.88654936  0.08429900  0.46787324     0.02050
C17         C  0.88570563  0.06266710  0.50088636     0.02050
C18         C  0.89772264  0.08066740  0.53400572     0.02050
C19         C  0.91461489  0.84129788  0.53557893     0.02050
C20         C  0.93263785  0.82964777  0.50170857     0.02050
C21         C  0.91582079  0.84223845  0.46816245     0.02050
C22         C  0.89559224  0.87634733  0.46794754     0.02050
C23         C  0.89311578  0.89764102  0.50149568     0.02050
C24         C  0.89873510  0.87812650  0.53572311     0.02050
C25         C  0.48379892  0.09983418  0.09880013     0.02050
C26         C  0.51640435  0.10470184  0.07612972     0.02050
C27         C  0.55134862  0.09719087  0.09344044     0.02050
C28         C  0.55194378  0.07239829  0.12450838     0.02050
C29         C  0.51852493  0.05208163  0.13051262     0.02050
C30         C  0.48647293  0.07498436  0.13026598     0.02050
C31         C  0.48743868  0.10323691  0.89061775     0.02050
C32         C  0.52073477  0.11202104  0.91088394     0.02050
C33         C  0.55518047  0.10359892  0.89243405     0.02050
C34         C  0.55596693  0.07422230  0.86574755     0.02050
C35         C  0.52239452  0.05654810  0.85509834     0.02050
C36         C  0.48845978  0.07620107  0.86099157     0.02050
C37         C  0.49167454  0.86265686  0.11500574     0.02050
C38         C  0.52397789  0.88666373  0.11731768     0.02050
C39         C  0.55947422  0.86799301  0.11597692     0.02050
C40         C  0.56130207  0.83096231  0.10097213     0.02050
C41         C  0.53069115  0.82047071  0.07737440     0.02050
C42         C  0.49516203  0.82820239  0.09444042     0.02050
C43         C  0.48633309  0.87942778  0.86262394     0.02050
C44         C  0.52066628  0.89469540  0.85100399     0.02050
C45         C  0.55278275  0.87478015  0.86084960     0.02050
C46         C  0.55175886  0.85043251  0.89204887     0.02050
C47         C  0.51863659  0.84883983  0.91411508     0.02050
C48         C  0.48487066  0.85750330  0.89572056     0.02050
C49         C  0.12574341  0.44056599  0.87251949     0.02050
C50         C  0.10614102  0.47320408  0.86174146     0.02050
C51         C  0.12559227  0.50726110  0.86780755     0.02050
C52         C  0.15409660  0.50895426  0.89582399     0.02050
C53         C  0.16151250  0.47734003  0.91737512     0.02050
C54         C  0.15585310  0.44320207  0.89882565     0.02050
C55         C  0.14603004  0.51261302  0.10148299     0.02050
C56         C  0.15663258  0.47937475  0.08338150     0.02050
C57         C  0.14889154  0.44581331  0.10294203     0.02050
C58         C  0.12528196  0.44581188  0.13581347     0.02050
C59         C  0.10304883  0.47792402  0.14212669     0.02050
C60         C  0.11733516  0.51178087  0.12912761     0.02050
C61         C  0.91657670  0.51018598  0.13838307     0.02050
C62         C  0.93565272  0.47610413  0.14688964     0.02050
C63         C  0.91382094  0.44290742  0.14040308     0.02050
C64         C  0.88951483  0.44268418  0.10752902     0.02050
C65         C  0.88333991  0.47603571  0.08767618     0.02050
C66         C  0.89224563  0.50957674  0.10605941     0.02050
C67         C  0.92529111  0.51159441  0.87888213     0.02050
C68         C  0.93977901  0.47698358  0.86715552     0.02050
C69         C  0.91398371  0.44655976  0.86886812     0.02050
C70         C  0.88745993  0.44724661  0.89981162     0.02050
C71         C  0.88471332  0.47941972  0.92237800     0.02050
C72         C  0.89643881  0.51276620  0.90615854     0.02050
O73         O  0.23286423  0.91189879  0.69149327    -0.75520
O74         O  0.17967406  0.94627248  0.68656658    -0.54430
C75         C  0.20267428  0.92204753  0.67456977     0.78210
O76         O  0.21955456  0.91018693  0.88140824    -0.60120
O77         O  0.27431150  0.93800390  0.89593786    -0.53150
C78         C  0.24900470  0.91315289  0.90156722     0.70220
O79         O  0.12341472  0.92168499  0.79968700    -0.74680
O80         O  0.12513272  0.93261445  0.73797064    -0.55250
C81         C  0.11376211  0.91387661  0.76612840     0.76220
O82         O  0.32542514  0.91600271  0.78271373    -0.59830
O83         O  0.32158890  0.93725769  0.84224282    -0.52950
C84         C  0.33878017  0.92086078  0.81608244     0.72810
Zr85       Zr  0.26476398  0.92918435  0.75056251     2.54710
O86         O  0.26518960  0.86235796  0.75359826    -0.80390
O87         O  0.31251521  0.93163787  0.70211325    -0.93810
Zr88       Zr  0.18458533  0.92935113  0.82793531     2.64680
O89         O  0.18408291  0.86302384  0.81924179    -0.98760
O90         O  0.14129039  0.92533398  0.88015502    -0.80830
O91         O  0.19923067  0.92793336  0.76387240    -0.84180
O92         O  0.24932883  0.92859298  0.81473383    -2.18890
O93         O  0.32442304  0.05381222  0.77565002    -0.67570
O94         O  0.33042368  0.01953975  0.82849011    -0.52140
C95         C  0.34299175  0.04214923  0.80374902     0.71200
O96         O  0.13378003  0.05329029  0.79380024    -0.60480
O97         O  0.11675057  0.02426662  0.74083759    -0.52460
C98         C  0.11188102  0.04942637  0.76576511     0.73000
O99         O  0.21173736  0.02833006  0.89362755    -0.71880
O100        O  0.27393716  0.02689154  0.89452316    -0.50550
C101        C  0.24298404  0.04065100  0.90579228     0.74380
O102        O  0.23235735  0.05771485  0.69354873    -0.67210
O103        O  0.18023916  0.02212619  0.68944331    -0.54400
C104        C  0.20220948  0.04703601  0.67714843     0.72760
Zr105      Zr  0.26317495  0.03794672  0.75131585     2.77540
O106        O  0.26109251  0.10471099  0.75596258    -0.97950
O107        O  0.30840873  0.03458830  0.70059912    -0.78780
Zr108      Zr  0.18699083  0.03678388  0.83094261     2.70070
O109        O  0.20215220  0.10153837  0.83477037    -0.80020
O110        O  0.13348246  0.05054504  0.87035780    -0.99110
Zr111      Zr  0.17160778  0.98282294  0.74094917     2.21500
Zr112      Zr  0.27492564  0.98260525  0.84313444     2.11130
O113        O  0.25142090  0.03845984  0.81696194    -2.47790
O114        O  0.19857084  0.03756196  0.76602421    -0.79820
O115        O  0.28937814  0.98369410  0.77766981    -0.72010
O116        O  0.15779557  0.98408908  0.80570245    -2.32970
O117        O  0.23724968  0.98338085  0.72596577    -2.29180
O118        O  0.20996670  0.98205132  0.85693742    -0.73770
H119        H  0.26011682  0.90658488  0.82506513     0.78230
H120        H  0.13128447  0.98540237  0.81063293     0.79310
H121        H  0.26314785  0.05959976  0.82841428     0.81540
H122        H  0.24130029  0.98370946  0.69933487     0.79150
H123        H  0.13192253  0.95073055  0.88344248     0.42180
H124        H  0.14045054  0.04214790  0.89560435     0.41150
H125        H  0.19979027  0.11041839  0.80882149     0.40830
H126        H  0.27234606  0.11059242  0.78047207     0.38760
H127        H  0.32427640  0.01321669  0.70678689     0.41900
H128        H  0.30160834  0.94705824  0.68224652     0.36680
H129        H  0.23930735  0.85497398  0.74733547     0.42800
H130        H  0.18151203  0.85954080  0.79197666     0.39210
H131        H  0.27976355  0.11329714  0.73750912     0.44130
H132        H  0.31293618  0.90652242  0.69138043     0.42850
H133        H  0.20997256  0.85522976  0.82469950     0.42990
H134        H  0.13337667  0.07762866  0.87195264     0.43350
O135        O  0.07854754  0.19665539  0.68627271    -0.75520
O136        O  0.05035945  0.14084762  0.68826777    -0.54430
C137        C  0.06962220  0.16514877  0.67147648     0.78210
O138        O  0.08464969  0.18443563  0.88101593    -0.60120
O139        O  0.05852031  0.23891193  0.89557374    -0.53150
C140        C  0.08257272  0.21323637  0.90126531     0.70220
O141        O  0.08559776  0.09876857  0.79447412    -0.74680
O142        O  0.05654142  0.08326246  0.74089421    -0.55250
C143        C  0.08197834  0.07810411  0.76594252     0.76220
O144        O  0.08641573  0.28389686  0.78052387    -0.59830
O145        O  0.05391474  0.28861590  0.83529435    -0.52950
C146        C  0.07813596  0.30014885  0.81173731     0.72810
Zr147      Zr  0.06587984  0.22634034  0.74857805     2.54710
O148        O  0.13366265  0.22104843  0.74754242    -0.80390
O149        O  0.06207507  0.27567248  0.70309027    -0.93810
Zr150      Zr  0.06492540  0.15096393  0.82789435     2.64680
O151        O  0.13235695  0.14649991  0.82999973    -0.98760
O152        O  0.06085645  0.10458503  0.87656093    -0.80830
O153        O  0.06636626  0.16259460  0.76332808    -0.84180
O154        O  0.06720598  0.21391522  0.81391204    -2.18890
O155        O  0.94124153  0.28647232  0.78309668    -0.67570
O156        O  0.97414469  0.29225203  0.83744287    -0.52140
C157        C  0.95137685  0.30411779  0.81263902     0.71200
O158        O  0.94215726  0.09183792  0.80276122    -0.60480
O159        O  0.97138310  0.08003447  0.74747988    -0.52460
C160        C  0.94939107  0.07131388  0.77456163     0.73000
O161        O  0.94279339  0.17823542  0.88911013    -0.71880
O162        O  0.97194405  0.23311197  0.89913363    -0.50550
C163        C  0.94958017  0.20689575  0.90881449     0.74380
O164        O  0.93345496  0.19705235  0.69768221    -0.67210
O165        O  0.96458059  0.14233076  0.69135252    -0.54400
C166        C  0.94139429  0.16709321  0.68036724     0.72760
Zr167      Zr  0.95573666  0.22705796  0.75397819     2.77540
O168        O  0.88779692  0.22761037  0.75794312    -0.97950
O169        O  0.95973104  0.27253555  0.70451141    -0.78780
Zr170      Zr  0.95643833  0.15088428  0.82942693     2.70070
O171        O  0.89228624  0.16169289  0.80936511    -0.80020
O172        O  0.95055155  0.10390486  0.87700815    -0.99110
Zr173      Zr  0.01042689  0.13502177  0.74072822     2.21500
Zr174      Zr  0.01259928  0.23829808  0.84377078     2.11130
O175        O  0.95568909  0.21478945  0.81882780    -2.47790
O176        O  0.95556112  0.16271182  0.76537232    -0.79820
O177        O  0.01189836  0.25179886  0.77816741    -0.72010
O178        O  0.01075970  0.12316336  0.80532777    -2.32970
O179        O  0.00952797  0.19974651  0.72616231    -2.29180
O180        O  0.01140949  0.17464802  0.85665602    -0.73770
H181        H  0.08972758  0.22452916  0.82414844     0.78230
H182        H  0.01163913  0.09716534  0.81055353     0.79310
H183        H  0.93426050  0.22594690  0.83072866     0.81540
H184        H  0.00811546  0.20336946  0.69954272     0.79150
H185        H  0.05551032  0.08126200  0.86327003     0.42180
H186        H  0.96559438  0.08298057  0.86767797     0.41150
H187        H  0.88836336  0.14545237  0.78748624     0.40830
H188        H  0.88211040  0.23738817  0.78312865     0.38760
H189        H  0.97975852  0.28957061  0.71264292     0.41900
H190        H  0.04563313  0.26594046  0.68318263     0.36680
H191        H  0.13868910  0.19597183  0.75687974     0.42800
H192        H  0.14121823  0.17221939  0.82809213     0.39210
H193        H  0.88011027  0.24741781  0.74075177     0.44130
H194        H  0.08723131  0.27657524  0.69157274     0.42850
H195        H  0.13718957  0.13950493  0.85613989     0.42990
H196        H  0.96552612  0.11328152  0.89820547     0.43350
O197        O  0.09537106  0.76073326  0.29935992    -0.75520
O198        O  0.06195549  0.81395207  0.30538066    -0.54430
C199        C  0.08506468  0.78956215  0.31738003     0.78210
O200        O  0.06961310  0.78317237  0.09917246    -0.60120
O201        O  0.06611009  0.72180605  0.10002539    -0.53150
C202        C  0.08092020  0.75169527  0.08791073     0.70220
O203        O  0.09364992  0.86103313  0.19624961    -0.74680
O204        O  0.06685077  0.87675945  0.25102410    -0.55250
C205        C  0.09114466  0.88182874  0.22501997     0.76220
O206        O  0.08481261  0.67032647  0.21565104    -0.59830
O207        O  0.05873501  0.66857815  0.15773761    -0.52950
C208        C  0.07676818  0.65411367  0.18463090     0.72810
Zr209      Zr  0.07485877  0.73245231  0.24115174     2.54710
O210        O  0.14255234  0.73160253  0.23477008    -0.80390
O211        O  0.07186067  0.68678607  0.29063990    -0.93810
Zr212      Zr  0.07425284  0.80788682  0.16192679     2.64680
O213        O  0.14096184  0.79869500  0.15915801    -0.98760
O214        O  0.08319490  0.85885317  0.11912679    -0.80830
O215        O  0.07630830  0.79640211  0.22665211    -0.84180
O216        O  0.07617100  0.74441642  0.17612351    -2.18890
O217        O  0.95101773  0.67391870  0.21511927    -0.67570
O218        O  0.98213338  0.66578573  0.15974096    -0.52140
C219        C  0.96002404  0.65501131  0.18573693     0.71200
O220        O  0.95028271  0.86195029  0.19827341    -0.60480
O221        O  0.98008356  0.87918365  0.25081812    -0.52460
C222        C  0.95474938  0.88394659  0.22585420     0.73000
O223        O  0.97670416  0.78258107  0.10046269    -0.71880
O224        O  0.97626139  0.72146720  0.09870496    -0.50550
C225        C  0.96333984  0.75231960  0.08782001     0.74380
O226        O  0.95054549  0.76688610  0.30354905    -0.67210
O227        O  0.97661610  0.82371891  0.30033066    -0.54400
C228        C  0.95767597  0.79921595  0.31728525     0.72760
Zr229      Zr  0.96426012  0.73503574  0.24317106     2.77540
O230        O  0.89660504  0.74033000  0.23878180    -0.97950
O231        O  0.96055280  0.68952843  0.29260532    -0.78780
Zr232      Zr  0.96546006  0.80815145  0.16257360     2.70070
O233        O  0.89964142  0.79280295  0.16075131    -0.80020
O234        O  0.94799209  0.85761232  0.12065175    -0.99110
Zr235      Zr  0.02196222  0.82514122  0.25166570     2.21500
Zr236      Zr  0.01952826  0.72012605  0.15076412     2.11130
O237        O  0.96318547  0.74498687  0.17743382    -2.47790
O238        O  0.96571964  0.79837513  0.22771393    -0.79820
O239        O  0.01871904  0.70840562  0.21643115    -0.72010
O240        O  0.02035542  0.83654026  0.18627165    -2.32970
O241        O  0.02057088  0.76064753  0.26699040    -2.29180
O242        O  0.01968608  0.78347727  0.13574302    -0.73770
H243        H  0.09784055  0.73295380  0.16500770     0.78230
H244        H  0.02066391  0.86255544  0.18096712     0.79310
H245        H  0.94147960  0.73346138  0.16644605     0.81540
H246        H  0.02066147  0.75691857  0.29358971     0.79150
H247        H  0.06116368  0.87482235  0.12311505     0.42180
H248        H  0.96138045  0.87958419  0.13008916     0.41150
H249        H  0.89017333  0.79979499  0.18575588     0.40830
H250        H  0.88986329  0.72620395  0.21610861     0.38760
H251        H  0.98529460  0.67741276  0.29224637     0.41900
H252        H  0.05660130  0.69819845  0.31062147     0.36680
H253        H  0.14957661  0.75771436  0.23137222     0.42800
H254        H  0.14426823  0.77729210  0.14239799     0.39210
H255        H  0.88700090  0.72527488  0.25966901     0.44130
H256        H  0.09747584  0.68585668  0.30095226     0.42850
H257        H  0.14908752  0.82017197  0.14442321     0.42990
H258        H  0.96086902  0.85183910  0.09688926     0.43350
O259        O  0.22815588  0.86283643  0.06573051    -0.75520
O260        O  0.28285720  0.87671086  0.03812095    -0.54430
C261        C  0.25688936  0.88364832  0.06192188     0.78210
O262        O  0.23473389  0.67292422  0.07257982    -0.60120
O263        O  0.18017737  0.67125270  0.04040809    -0.53150
C264        C  0.20280707  0.65797130  0.06437199     0.70220
O265        O  0.32716968  0.75982309  0.06940572    -0.74680
O266        O  0.33446750  0.81321499  0.03629028    -0.55250
C267        C  0.34563103  0.78869265  0.05955408     0.76220
O268        O  0.13458443  0.78112576  0.06923119    -0.59830
O269        O  0.12273472  0.72632647  0.04050239    -0.52950
C270        C  0.11448355  0.75240178  0.06375076     0.72810
Zr271      Zr  0.19328595  0.80817486  0.05168770     2.54710
O272        O  0.20814001  0.79996086  0.11720669    -0.80390
O273        O  0.14644709  0.85501040  0.06278863    -0.93810
Zr274      Zr  0.26825071  0.72997823  0.05211164     2.64680
O275        O  0.26875135  0.73271599  0.11996262    -0.98760
O276        O  0.31465271  0.68135803  0.04701112    -0.80830
O277        O  0.25721551  0.79477835  0.05212610    -0.84180
O278        O  0.20391937  0.74453699  0.05322432    -2.18890
O279        O  0.12754715  0.78315795  0.95100921    -0.67570
O280        O  0.12607425  0.72201909  0.95293473    -0.52140
C281        C  0.11555542  0.75239339  0.93857147     0.71200
O282        O  0.32692366  0.76181672  0.92029444    -0.60480
O283        O  0.33151617  0.81362833  0.95588738    -0.52460
C284        C  0.34334873  0.79194753  0.93041121     0.73000
O285        O  0.24161789  0.66867766  0.92890714    -0.71880
O286        O  0.18529965  0.66712499  0.95898139    -0.50550
C287        C  0.21088017  0.65244527  0.93856994     0.74380
O288        O  0.22256191  0.86133019  0.92588548    -0.67210
O289        O  0.27743951  0.87613033  0.95295416    -0.54400
C290        C  0.25079688  0.88254295  0.92950494     0.72760
Zr291      Zr  0.19046694  0.80644616  0.94235601     2.77540
O292        O  0.18618685  0.79538970  0.87559288    -0.97950
O293        O  0.14789952  0.85649527  0.92886584    -0.78780
Zr294      Zr  0.26913731  0.73021186  0.94156083     2.70070
O295        O  0.26330362  0.72859393  0.87393371    -0.80020
O296        O  0.32100633  0.68714551  0.94476441    -0.99110
Zr297      Zr  0.28053961  0.82240557  0.99652067     2.21500
Zr298      Zr  0.17691056  0.72068184  0.99772479     2.11130
O299        O  0.20383544  0.74296611  0.94089451    -2.47790
O300        O  0.25552269  0.79450322  0.94123150    -0.79820
O301        O  0.16421167  0.78438504  0.99798210    -0.72010
O302        O  0.29374671  0.75707779  0.99686149    -2.32970
O303        O  0.21544974  0.83507515  0.99629040    -2.29180
O304        O  0.24198822  0.70532613  0.99682477    -0.73770
H305        H  0.19230726  0.73429662  0.07520538     0.78230
H306        H  0.32038992  0.75297032  0.99654491     0.79310
H307        H  0.19241722  0.73107384  0.91966917     0.81540
H308        H  0.21044518  0.86116051  0.99628974     0.79150
H309        H  0.33420877  0.69146266  0.03035526     0.42180
H310        H  0.31221149  0.66749469  0.96169383     0.41150
H311        H  0.27155307  0.75325422  0.86568160     0.40830
H312        H  0.21246027  0.79371899  0.86708679     0.38760
H313        H  0.14259633  0.86774989  0.95349798     0.41900
H314        H  0.15591317  0.87712450  0.04979555     0.36680
H315        H  0.23407931  0.80899804  0.12012965     0.42800
H316        H  0.24264190  0.72755013  0.12751034     0.39210
H317        H  0.17626926  0.77013299  0.87285962     0.44130
H318        H  0.14964044  0.86053118  0.08957187     0.42850
H319        H  0.28282623  0.71059272  0.12757101     0.42990
H320        H  0.32178095  0.67541607  0.91980733     0.43350
O321        O  0.09236797  0.09496299  0.19220316    -0.75520
O322        O  0.06515628  0.07996901  0.24692769    -0.54430
C323        C  0.08884185  0.07416115  0.22067386     0.78210
O324        O  0.10099895  0.28165310  0.21655454    -0.60120
O325        O  0.06770038  0.29220374  0.16306633    -0.53150
C326        C  0.09189606  0.30130600  0.18810431     0.70220
O327        O  0.09912175  0.18931396  0.30111253    -0.74680
O328        O  0.06365714  0.13769017  0.30028704    -0.55250
C329        C  0.08795709  0.15855700  0.31530429     0.76220
O330        O  0.09510877  0.17979051  0.10503423    -0.59830
O331        O  0.06755331  0.23583404  0.09756276    -0.52950
C332        C  0.08998347  0.20965227  0.08705935     0.72810
Zr333      Zr  0.07598533  0.15043955  0.16141092     2.54710
O334        O  0.14311516  0.14937969  0.16921080    -0.80390
O335        O  0.07355176  0.10399205  0.11242073    -0.93810
Zr336      Zr  0.08147450  0.22242277  0.24340966     2.64680
O337        O  0.14914940  0.21678408  0.23946882    -0.98760
O338        O  0.08092629  0.26797747  0.29334068    -0.80830
O339        O  0.07948105  0.15934008  0.22617487    -0.84180
O340        O  0.07986891  0.21335517  0.17752847    -2.18890
O341        O  0.97557233  0.17802651  0.10089642    -0.67570
O342        O  0.97635040  0.23915647  0.10301216    -0.52140
C343        C  0.96213270  0.20880152  0.09076629     0.71200
O344        O  0.95259702  0.19016688  0.30336443    -0.60480
O345        O  0.98488067  0.13676019  0.30272315    -0.52460
C346        C  0.96182040  0.15885913  0.31775033     0.73000
O347        O  0.95285298  0.28334944  0.21995042    -0.71880
O348        O  0.98408927  0.29355595  0.16493856    -0.50550
C349        C  0.96072904  0.30254504  0.19089235     0.74380
O350        O  0.95050793  0.10093452  0.19968941    -0.67210
O351        O  0.98070905  0.08105615  0.25064485    -0.54400
C352        C  0.95435915  0.07838150  0.22682443     0.72760
Zr353      Zr  0.96749399  0.15341415  0.16277604     2.77540
O354        O  0.90129257  0.16729948  0.15861580    -0.97950
O355        O  0.95648673  0.10130282  0.12176587    -0.78780
Zr356      Zr  0.97087701  0.22426990  0.24619452     2.70070
O357        O  0.90287566  0.22411324  0.24599872    -0.80020
O358        O  0.97714276  0.26827085  0.29715194    -0.99110
Zr359      Zr  0.02332772  0.13309161  0.24910897     2.21500
Zr360      Zr  0.02484315  0.24123457  0.15272694     2.11130
O361        O  0.96892357  0.21614447  0.18018773    -2.47790
O362        O  0.96770567  0.16174580  0.22800026    -0.79820
O363        O  0.02249928  0.17802727  0.13656645    -0.72010
O364        O  0.02590672  0.19622170  0.26850318    -2.32970
O365        O  0.02114143  0.12277392  0.18402367    -2.29180
O366        O  0.02620716  0.24987446  0.21944915    -0.73770
H367        H  0.10199770  0.22392989  0.16638908     0.78230
H368        H  0.02620648  0.19859126  0.29533053     0.79310
H369        H  0.94716524  0.22837404  0.17041085     0.81540
H370        H  0.02025979  0.09688073  0.17798985     0.79150
H371        H  0.06078969  0.25980753  0.31039641     0.42180
H372        H  0.99318708  0.28806440  0.28697748     0.41150
H373        H  0.89600346  0.20001257  0.23503974     0.40830
H374        H  0.89960027  0.19140904  0.14608563     0.38760
H375        H  0.98149445  0.09500529  0.11179526     0.41900
H376        H  0.05386022  0.11269025  0.09525772     0.36680
H377        H  0.14730679  0.14860344  0.19647362     0.42800
H378        H  0.15556142  0.22450144  0.21378618     0.39210
H379        H  0.89237827  0.14952486  0.13980637     0.44130
H380        H  0.06263478  0.08191529  0.12429807     0.42850
H381        H  0.15876609  0.23684356  0.25556103     0.42990
H382        H  0.95210462  0.27957250  0.29953140     0.43350
O383        O  0.14327557  0.90558048  0.19770180    -0.75520
O384        O  0.12523936  0.93608011  0.24957849    -0.54430
C385        C  0.12103799  0.91028764  0.22514878     0.78210
O386        O  0.33254845  0.90901178  0.20772971    -0.60120
O387        O  0.33896824  0.94316157  0.15459203    -0.53150
C388        C  0.34967273  0.91756324  0.17648480     0.70220
O389        O  0.23966103  0.91346562  0.30468829    -0.74680
O390        O  0.18456747  0.94501625  0.30513899    -0.55250
C391        C  0.20783639  0.92291760  0.32000089     0.76220
O392        O  0.22845852  0.90990126  0.11133885    -0.59830
O393        O  0.28288121  0.93797420  0.09673990    -0.52950
C394        C  0.25707715  0.91357114  0.09065623     0.72810
Zr395      Zr  0.19746674  0.92658322  0.16627047     2.54710
O396        O  0.20474958  0.86030625  0.16979958    -0.80390
O397        O  0.14892682  0.92213682  0.11906804    -0.93810
Zr398      Zr  0.27416071  0.92864075  0.24440157     2.64680
O399        O  0.27481375  0.86188343  0.24845580    -0.98760
O400        O  0.32302848  0.93831147  0.29056378    -0.80830
O401        O  0.20870080  0.92641059  0.23049264    -0.84180
O402        O  0.26181516  0.92778846  0.17929730    -2.18890
O403        O  0.21687060  0.02706168  0.09815950    -0.67570
O404        O  0.27907702  0.02918381  0.10029857    -0.52140
C405        C  0.24760466  0.04116297  0.08758641     0.71200
O406        O  0.23831593  0.04832554  0.30431206    -0.60480
O407        O  0.18084035  0.02119424  0.30325768    -0.52460
C408        C  0.20677175  0.03952303  0.31942463     0.73000
O409        O  0.32985667  0.05144929  0.21969932    -0.71880
O410        O  0.34107262  0.01921494  0.16580415    -0.50550
C411        C  0.35058362  0.04159806  0.19219268     0.74380
O412        O  0.13954589  0.04881178  0.19310351    -0.67210
O413        O  0.12342710  0.02247663  0.24768317    -0.54400
C414        C  0.11792309  0.04554970  0.22117705     0.72760
Zr415      Zr  0.19508077  0.03316884  0.16110006     2.77540
O416        O  0.20606838  0.09887431  0.15574502    -0.97950
O417        O  0.14364528  0.04437998  0.11848963    -0.78780
Zr418      Zr  0.26764680  0.03741917  0.24279096     2.70070
O419        O  0.25785974  0.10309326  0.23457081    -0.80020
O420        O  0.31085202  0.04782543  0.29423228    -0.99110
Zr421      Zr  0.17761752  0.98098778  0.25084203     2.21500
Zr422      Zr  0.28591049  0.98249120  0.15063233     2.11130
O423        O  0.25916259  0.03729900  0.17674627    -2.47790
O424        O  0.20358711  0.03636106  0.22648293    -0.79820
O425        O  0.22133134  0.97910959  0.13658478    -0.72010
O426        O  0.24306282  0.98213831  0.26705998    -2.32970
O427        O  0.16666365  0.97987785  0.18592871    -2.29180
O428        O  0.29672053  0.98395238  0.21718736    -0.73770
H429        H  0.27304605  0.90615117  0.16838650     0.78230
H430        H  0.24640178  0.98240564  0.29373646     0.79310
H431        H  0.27086071  0.05880715  0.16616860     0.81540
H432        H  0.14032335  0.97866987  0.18021961     0.79150
H433        H  0.31174462  0.95508988  0.30923932     0.42180
H434        H  0.33160348  0.03032832  0.29000320     0.41150
H435        H  0.23359515  0.10806986  0.24690132     0.40830
H436        H  0.23065007  0.10173694  0.14343065     0.38760
H437        H  0.13300732  0.01970261  0.11349145     0.41900
H438        H  0.15621934  0.94036654  0.09994823     0.36680
H439        H  0.20524658  0.85486464  0.19682852     0.42800
H440        H  0.27796646  0.85337302  0.22237366     0.39210
H441        H  0.18795496  0.10610473  0.13639938     0.44130
H442        H  0.12621742  0.93259399  0.13076187     0.42850
H443        H  0.29890031  0.85611511  0.26060541     0.42990
H444        H  0.32184085  0.07241895  0.28972583     0.43350
O445        O  0.32523483  0.19382187  0.06892208    -0.75520
O446        O  0.32726241  0.14032576  0.03532354    -0.54430
C447        C  0.34054358  0.16286313  0.05933825     0.78210
O448        O  0.12490810  0.18054575  0.03975551    -0.60120
O449        O  0.12484402  0.24146839  0.03840552    -0.53150
C450        C  0.11336564  0.21133160  0.05286082     0.70220
O451        O  0.21454268  0.09386578  0.06887009    -0.74680
O452        O  0.27049345  0.08293903  0.04075997    -0.55250
C453        C  0.24442645  0.07448617  0.06386659     0.76220
O454        O  0.23473478  0.28600231  0.06886128    -0.59830
O455        O  0.18165224  0.29042505  0.03413989    -0.52950
C456        C  0.20410183  0.30240155  0.05900421     0.72810
Zr457      Zr  0.26719803  0.22751246  0.05101231     2.54710
O458        O  0.26933820  0.23080573  0.11884485    -0.80390
O459        O  0.31513297  0.27453879  0.04370073    -0.93810
Zr460      Zr  0.18586084  0.15331324  0.05237630     2.64680
O461        O  0.18775864  0.17361987  0.11701482    -0.98760
O462        O  0.13980818  0.11036361  0.07587831    -0.80830
O463        O  0.25092768  0.16365950  0.05334364    -0.84180
O464        O  0.20161020  0.21656435  0.05039904    -2.18890
O465        O  0.24746638  0.28537951  0.92571168    -0.67570
O466        O  0.19112099  0.29316449  0.95507125    -0.52140
C467        C  0.21841873  0.30447595  0.93460305     0.71200
O468        O  0.21232905  0.09326278  0.92328136    -0.60480
O469        O  0.26687021  0.08201786  0.95367941    -0.52460
C470        C  0.24121022  0.07371849  0.92966393     0.73000
O471        O  0.13283982  0.18435564  0.92647237    -0.71880
O472        O  0.12170419  0.24038132  0.95114538    -0.50550
C473        C  0.11324426  0.21358837  0.92915707     0.74380
O474        O  0.32663214  0.18651126  0.92471853    -0.67210
O475        O  0.32717846  0.13449012  0.95992095    -0.54400
C476        C  0.34110193  0.15557948  0.93523489     0.72760
Zr477      Zr  0.27010194  0.22327084  0.94054043     2.77540
O478        O  0.26798168  0.22229720  0.87268176    -0.97950
O479        O  0.32362022  0.26462023  0.94285770    -0.78780
Zr480      Zr  0.18777871  0.15130780  0.94220757     2.70070
O481        O  0.19874217  0.16280883  0.87643284    -0.80020
O482        O  0.13668903  0.10755695  0.93533178    -0.99110
Zr483      Zr  0.27315520  0.13453240  0.99776347     2.21500
Zr484      Zr  0.17650739  0.24010671  0.99304518     2.11130
O485        O  0.20404857  0.21395621  0.93867209    -2.47790
O486        O  0.25283256  0.16014140  0.94097805    -0.79820
O487        O  0.24281366  0.25119557  0.99433169    -0.72010
O488        O  0.20830491  0.12367138  0.99807787    -2.32970
O489        O  0.29196448  0.19806145  0.99699302    -2.29180
O490        O  0.16067784  0.17670312  0.99601074    -0.73770
H491        H  0.19024494  0.22915759  0.07121965     0.78230
H492        H  0.20240966  0.09774780  0.99815245     0.79310
H493        H  0.19384078  0.22507981  0.91651339     0.81540
H494        H  0.31883194  0.20045707  0.99707942     0.79150
H495        H  0.13137949  0.09670302  0.05347486     0.42180
H496        H  0.14368366  0.08663130  0.95142522     0.41150
H497        H  0.22599190  0.15973301  0.87291568     0.40830
H498        H  0.24455961  0.23519516  0.86622305     0.38760
H499        H  0.31779339  0.28193891  0.96342400     0.41900
H500        H  0.33734333  0.26117972  0.03432574     0.36680
H501        H  0.27898810  0.20659472  0.12679585     0.42800
H502        H  0.21281480  0.18455123  0.12050547     0.39210
H503        H  0.28809727  0.23938493  0.86493992     0.44130
H504        H  0.32172326  0.28168534  0.06953943     0.42850
H505        H  0.17016010  0.19447581  0.11905448     0.42990
H506        H  0.11521595  0.11888662  0.94845687     0.43350
O507        O  0.90208193  0.05573280  0.20085594    -0.75520
O508        O  0.92036197  0.02484171  0.25213728    -0.54430
C509        C  0.92446208  0.05050174  0.22769174     0.78210
O510        O  0.71092175  0.04761224  0.22048520    -0.60120
O511        O  0.70622871  0.01956596  0.16335131    -0.53150
C512        C  0.69343415  0.03981135  0.18991690     0.70220
O513        O  0.80068811  0.04663292  0.30935915    -0.74680
O514        O  0.85867131  0.02041840  0.30861154    -0.55250
C515        C  0.83238255  0.03889353  0.32443405     0.76220
O516        O  0.81795470  0.05565678  0.11506845    -0.59830
O517        O  0.76487208  0.02484976  0.10001540    -0.52950
C518        C  0.79025034  0.04945657  0.09373680     0.72810
Zr519      Zr  0.84819457  0.03637853  0.16980768     2.54710
O520        O  0.84751739  0.10300665  0.17324232    -0.80390
O521        O  0.89720857  0.03428481  0.12250519    -0.93810
Zr522      Zr  0.77201591  0.03250138  0.24871388     2.64680
O523        O  0.77418968  0.09940066  0.24944311    -0.98760
O524        O  0.72379965  0.02721475  0.29640385    -0.80830
O525        O  0.83698008  0.03547043  0.23442138    -0.84180
O526        O  0.78397359  0.03651471  0.18365689    -2.18890
O527        O  0.82350199  0.92583164  0.10266949    -0.67570
O528        O  0.76123416  0.93307214  0.10557819    -0.52140
C529        C  0.79044627  0.91612059  0.09332008     0.71200
O530        O  0.81050692  0.90579824  0.30306760    -0.60480
O531        O  0.86504725  0.93809838  0.30505172    -0.52460
C532        C  0.84223919  0.91452592  0.31870460     0.73000
O533        O  0.71477058  0.90808271  0.21262433    -0.71880
O534        O  0.70844496  0.94492037  0.16144504    -0.50550
C535        C  0.69716617  0.91946188  0.18307480     0.74380
O536        O  0.90528234  0.91092156  0.19690048    -0.67210
O537        O  0.92057521  0.93745201  0.25193076    -0.54400
C538        C  0.92607640  0.91359249  0.22572727     0.72760
Zr539      Zr  0.85126927  0.93046251  0.16388752     2.77540
O540        O  0.84972392  0.86400493  0.16005716    -0.97950
O541        O  0.90308074  0.93169881  0.11976715    -0.78780
Zr542      Zr  0.77540147  0.92398463  0.24469425     2.70070
O543        O  0.77920888  0.85741601  0.23904522    -0.80020
O544        O  0.72889564  0.92360839  0.29435812    -0.99110
Zr545      Zr  0.86720773  0.98096556  0.25512084     2.21500
Zr546      Zr  0.76122627  0.98228683  0.15402979     2.11130
O547        O  0.78726632  0.92683917  0.17921267    -2.47790
O548        O  0.83994671  0.92685679  0.22871354    -0.79820
O549        O  0.82530877  0.98424495  0.13884348    -0.72010
O550        O  0.80157380  0.97820696  0.27114201    -2.32970
O551        O  0.87877937  0.98319746  0.19026939    -2.29180
O552        O  0.74847367  0.97854789  0.21995247    -0.73770
H553        H  0.77229394  0.05819882  0.17354485     0.78230
H554        H  0.79831372  0.97681854  0.29783400     0.79310
H555        H  0.77641724  0.90524151  0.16782048     0.81540
H556        H  0.90525795  0.98393716  0.18507371     0.79150
H557        H  0.73039429  0.00473962  0.31037575     0.42180
H558        H  0.70802873  0.93857021  0.28462818     0.41150
H559        H  0.80597635  0.85249748  0.23413630     0.40830
H560        H  0.82342855  0.85813148  0.15404595     0.38760
H561        H  0.89447160  0.94740385  0.09902540     0.41900
H562        H  0.88854291  0.01580936  0.10411327     0.36680
H563        H  0.83935708  0.10864228  0.19903597     0.42800
H564        H  0.76434428  0.10683790  0.22483030     0.39210
H565        H  0.86389398  0.85842555  0.13702810     0.44130
H566        H  0.91914961  0.02288105  0.13451322     0.42850
H567        H  0.75444069  0.10664640  0.26739101     0.42990
H568        H  0.71911270  0.89813043  0.29447233     0.43350
O569        O  0.82495611  0.08578602  0.05448646    -0.75520
O570        O  0.76349959  0.08512191  0.04282341    -0.54430
C571        C  0.79198502  0.07389630  0.06111551     0.78210
O572        O  0.79699288  0.28479430  0.06908589    -0.60120
O573        O  0.85316989  0.28614083  0.03969137    -0.53150
C574        C  0.82854246  0.30054066  0.06079606     0.70220
O575        O  0.70998777  0.18812739  0.06386839    -0.74680
O576        O  0.71054693  0.13638486  0.02784392    -0.55250
C577        C  0.69512996  0.15780501  0.05149566     0.76220
O578        O  0.90895583  0.17657457  0.07206067    -0.59830
O579        O  0.91738187  0.23287507  0.04608412    -0.52950
C580        C  0.92757710  0.20661092  0.06780511     0.72810
Zr581      Zr  0.84948186  0.14791745  0.05582643     2.54710
O582        O  0.82567768  0.15466621  0.11909720    -0.80390
O583        O  0.89485496  0.10597498  0.08111564    -0.93810
Zr584      Zr  0.76920723  0.22331790  0.05258384     2.64680
O585        O  0.76710609  0.22134975  0.12040308    -0.98760
O586        O  0.71900619  0.26821119  0.04901621    -0.80830
O587        O  0.78492333  0.15958390  0.05323742    -0.84180
O588        O  0.83470446  0.21102270  0.05757532    -2.18890
O589        O  0.91800204  0.17667365  0.95698084    -0.67570
O590        O  0.91587035  0.23735687  0.95845694    -0.52140
C591        C  0.92829151  0.20765163  0.94397579     0.71200
O592        O  0.71847064  0.18958656  0.91959615    -0.60480
O593        O  0.71587751  0.13822973  0.95511392    -0.52460
C594        C  0.70288923  0.15878322  0.92975226     0.73000
O595        O  0.80425341  0.28784634  0.93394100    -0.71880
O596        O  0.85660809  0.28816379  0.96912386    -0.50550
C597        C  0.83428178  0.30362667  0.94691418     0.74380
O598        O  0.83130186  0.09129649  0.92640775    -0.67210
O599        O  0.77532311  0.07949755  0.95416256    -0.54400
C600        C  0.80235946  0.07116177  0.93185362     0.72760
Zr601      Zr  0.85716299  0.14991551  0.94504977     2.77540
O602        O  0.86171891  0.16316442  0.87941805    -0.97950
O603        O  0.90201853  0.10139861  0.93371834    -0.78780
Zr604      Zr  0.77565070  0.22468934  0.94113445     2.70070
O605        O  0.78558790  0.22644055  0.87398471    -0.80020
O606        O  0.72331269  0.26726840  0.93915455    -0.99110
Zr607      Zr  0.76733495  0.13334386  0.99505662     2.21500
Zr608      Zr  0.86403652  0.23396443  0.00291696     2.11130
O609        O  0.84121761  0.21287825  0.94405785    -2.47790
O610        O  0.79218031  0.16091746  0.94032619    -0.79820
O611        O  0.88030963  0.17144557  0.00284276    -0.72010
O612        O  0.74929723  0.19708773  0.99503163    -2.32970
O613        O  0.83187543  0.12142861  0.99777478    -2.29180
O614        O  0.79872192  0.24780017  0.99886913    -0.73770
H615        H  0.84494254  0.22236022  0.07973272     0.78230
H616        H  0.72251489  0.19965088  0.99338240     0.79310
H617        H  0.85355779  0.22581464  0.92406801     0.81540
H618        H  0.83823518  0.09580610  0.99488757     0.79150
H619        H  0.70433469  0.26075310  0.02685913     0.42180
H620        H  0.72867765  0.28545812  0.95905914     0.41150
H621        H  0.78829086  0.20032874  0.86659169     0.40830
H622        H  0.87034951  0.18889291  0.87722763     0.38760
H623        H  0.90947059  0.09319227  0.95891481     0.41900
H624        H  0.89640027  0.08539732  0.06302524     0.36680
H625        H  0.80473239  0.13692599  0.12083430     0.42800
H626        H  0.79120007  0.23212750  0.12849013     0.39210
H627        H  0.88396822  0.14843345  0.87337267     0.44130
H628        H  0.88169986  0.09584096  0.10302662     0.42850
H629        H  0.74822476  0.24002022  0.12737463     0.42990
H630        H  0.72681727  0.28099458  0.91561124     0.43350
O631        O  0.10152361  0.85751792  0.78954220    -0.75520
O632        O  0.06552939  0.87233073  0.73955298    -0.54430
C633        C  0.09205550  0.87916932  0.76330781     0.78210
O634        O  0.08996960  0.66565157  0.78548754    -0.60120
O635        O  0.05998254  0.66838856  0.84133319    -0.53150
C636        C  0.08143680  0.65243325  0.81806454     0.70220
O637        O  0.09372117  0.75054315  0.68988174    -0.74680
O638        O  0.06397285  0.80605856  0.68378129    -0.55250
C639        C  0.08576834  0.78028480  0.67191463     0.76220
O640        O  0.10088570  0.78015936  0.88287021    -0.59830
O641        O  0.06800086  0.72864960  0.89802393    -0.52950
C642        C  0.09286952  0.75342933  0.90467895     0.72810
Zr643      Zr  0.08502566  0.80289453  0.82194501     2.54710
O644        O  0.14978596  0.78900447  0.80687293    -0.80390
O645        O  0.10043296  0.85109227  0.86633677    -0.93810
Zr646      Zr  0.07490747  0.72295010  0.75014715     2.64680
O647        O  0.14278687  0.71929373  0.74745095    -0.98760
O648        O  0.06421870  0.67378281  0.70511536    -0.80830
O649        O  0.07877481  0.78784313  0.75837708    -0.84180
O650        O  0.08101946  0.73922004  0.81413368    -2.18890
O651        O  0.97669723  0.79015065  0.89509496    -0.67570
O652        O  0.97962744  0.72867523  0.89656444    -0.52140
C653        C  0.96534594  0.75917032  0.90750042     0.71200
O654        O  0.94190802  0.75683839  0.69962105    -0.60480
O655        O  0.97640927  0.80843014  0.68670769    -0.52460
C656        C  0.95040348  0.78468307  0.67904761     0.73000
O657        O  0.95626873  0.66885014  0.78921411    -0.71880
O658        O  0.98529858  0.67075410  0.84562553    -0.50550
C659        C  0.96568091  0.65442767  0.82084261     0.74380
O660        O  0.97340020  0.87189475  0.80554209    -0.67210
O661        O  0.97548966  0.86681486  0.74288912    -0.54400
C662        C  0.96193207  0.88074338  0.77328473     0.72760
Zr663      Zr  0.97541112  0.81124410  0.83107381     2.77540
O664        O  0.90841859  0.80556933  0.82285674    -0.97950
O665        O  0.96062010  0.85728059  0.87796959    -0.78780
Zr666      Zr  0.96472088  0.72949409  0.75800410     2.70070
O667        O  0.89790687  0.73143643  0.77070233    -0.80020
O668        O  0.95820363  0.68352747  0.70887632    -0.99110
Zr669      Zr  0.02308683  0.81738898  0.73666700     2.21500
Zr670      Zr  0.02475348  0.72293777  0.84569232     2.11130
O671        O  0.96811863  0.74734401  0.82174174    -2.47790
O672        O  0.96859389  0.79447563  0.76749624    -0.79820
O673        O  0.03084860  0.78652853  0.85553724    -0.72010
O674        O  0.01940587  0.75156984  0.72720553    -2.32970
O675        O  0.03044286  0.83219748  0.80102579    -2.29180
O676        O  0.02021166  0.70373594  0.78196901    -0.73770
H677        H  0.10253035  0.72758351  0.82517761     0.78230
H678        H  0.01729129  0.74622774  0.70088500     0.79310
H679        H  0.94655386  0.73793256  0.83485521     0.81540
H680        H  0.03460647  0.85807307  0.80520557     0.79150
H681        H  0.04754257  0.68465189  0.68615146     0.42180
H682        H  0.97745243  0.66486514  0.71450773     0.41150
H683        H  0.88992337  0.75591248  0.76180453     0.40830
H684        H  0.90100666  0.78612200  0.84059638     0.38760
H685        H  0.98502874  0.86839510  0.88453002     0.41900
H686        H  0.08361513  0.87176787  0.86021455     0.36680
H687        H  0.15227777  0.79446003  0.77995264     0.42800
H688        H  0.15057295  0.71380092  0.77330726     0.39210
H689        H  0.89835435  0.82857588  0.83354493     0.44130
H690        H  0.12556252  0.85944644  0.85868457     0.42850
H691        H  0.14786817  0.69634642  0.73340802     0.42990
H692        H  0.93413068  0.67114415  0.71423021     0.43350
O693        O  0.81828342  0.04457033  0.69670048    -0.75520
O694        O  0.86741990  0.00493843  0.69113600    -0.54430
C695        C  0.84676959  0.03093752  0.67896060     0.78210
O696        O  0.83365827  0.02456989  0.89930470    -0.60120
O697        O  0.77113924  0.02352947  0.89700073    -0.53150
C698        C  0.80180835  0.03732725  0.90913192     0.70220
O699        O  0.92184562  0.02458301  0.80866135    -0.74680
O700        O  0.91836418  0.01947871  0.74663610    -0.55250
C701        C  0.92991860  0.03600002  0.77601644     0.76220
O702        O  0.71905101  0.04088766  0.78014336    -0.59830
O703        O  0.71977071  0.02295598  0.84079400    -0.52950
C704        C  0.70334424  0.03637260  0.81233469     0.72810
Zr705      Zr  0.78370146  0.03270329  0.75611477     2.54710
O706        O  0.78969664  0.09879343  0.76513233    -0.80390
O707        O  0.73791868  0.04373107  0.70732560    -0.93810
Zr708      Zr  0.86037011  0.02447815  0.83701601     2.64680
O709        O  0.85525512  0.09034435  0.83121189    -0.98760
O710        O  0.90697636  0.04019834  0.88345349    -0.80830
O711        O  0.84802670  0.02836611  0.77237034    -0.84180
O712        O  0.79656668  0.03209746  0.82139615    -2.18890
O713        O  0.71549198  0.90961983  0.78477598    -0.67570
O714        O  0.71124554  0.94703870  0.83557738    -0.52140
C715        C  0.69859826  0.92203839  0.81419406     0.71200
O716        O  0.90688977  0.89799795  0.80202260    -0.60480
O717        O  0.92386456  0.93042232  0.75046249    -0.52460
C718        C  0.92893359  0.90470132  0.77435536     0.73000
O719        O  0.82406714  0.92781504  0.89669425    -0.71880
O720        O  0.76253837  0.93398774  0.89825289    -0.50550
C721        C  0.79210401  0.91768604  0.90949655     0.74380
O722        O  0.80675056  0.91532997  0.69092698    -0.67210
O723        O  0.86758059  0.92330175  0.70445596    -0.54400
C724        C  0.84167826  0.91660991  0.68131260     0.72760
Zr725      Zr  0.77527775  0.92366324  0.75292090     2.77540
O726        O  0.77787040  0.85686559  0.74988440    -0.97950
O727        O  0.72545536  0.92577466  0.70691594    -0.78780
Zr728      Zr  0.84954066  0.91610400  0.83411722     2.70070
O729        O  0.82468688  0.85411298  0.82959650    -0.80020
O730        O  0.89409214  0.88949681  0.87650387    -0.99110
Zr731      Zr  0.87052467  0.97169640  0.74804711     2.21500
Zr732      Zr  0.76765855  0.97841528  0.84647611     2.11130
O733        O  0.78596844  0.92114884  0.81873835    -2.47790
O734        O  0.83912517  0.91801437  0.76927294    -0.79820
O735        O  0.75456410  0.97949546  0.78082573    -0.72010
O736        O  0.88310112  0.96794530  0.81286545    -2.32970
O737        O  0.80596966  0.97701252  0.73027131    -2.29180
O738        O  0.83131239  0.97201994  0.86242215    -0.73770
H739        H  0.78672827  0.05416885  0.83276730     0.78230
H740        H  0.90911267  0.96391460  0.81859981     0.79310
H741        H  0.77216750  0.90108785  0.82975830     0.81540
H742        H  0.80237710  0.97840759  0.70368166     0.79150
H743        H  0.91750377  0.01626141  0.89114146     0.42180
H744        H  0.89570099  0.90730044  0.89738544     0.41150
H745        H  0.83427113  0.84470024  0.80546508     0.40830
H746        H  0.76343065  0.84851821  0.77187700     0.38760
H747        H  0.72557196  0.95152590  0.69808707     0.41900
H748        H  0.74425559  0.02602926  0.68726297     0.36680
H749        H  0.81523149  0.10463279  0.75622572     0.42800
H750        H  0.83819219  0.09774432  0.85163059     0.39210
H751        H  0.76199944  0.85029922  0.72827247     0.44130
H752        H  0.74445627  0.06815375  0.69712146     0.42850
H753        H  0.88024917  0.09828677  0.83952675     0.42990
H754        H  0.88093679  0.86793421  0.88678583     0.43350
O755        O  0.71858762  0.74740243  0.07119447    -0.75520
O756        O  0.71014205  0.80489802  0.04638264    -0.54430
C757        C  0.69994052  0.77723350  0.06691702     0.78210
O758        O  0.90971127  0.78267379  0.07216565    -0.60120
O759        O  0.92197447  0.72999480  0.03954471    -0.53150
C760        C  0.92993929  0.75473196  0.06435583     0.70220
O761        O  0.81822076  0.86196343  0.07550503    -0.74680
O762        O  0.76321609  0.87397432  0.04674166    -0.55250
C763        C  0.78940785  0.88209728  0.07014012     0.76220
O764        O  0.81512793  0.66641826  0.06027881    -0.59830
O765        O  0.86941525  0.66820057  0.02724243    -0.52950
C766        C  0.84682349  0.65243168  0.04960344     0.72810
Zr767      Zr  0.77865850  0.72403786  0.04999350     2.54710
O768        O  0.78020427  0.71760466  0.11754675    -0.80390
O769        O  0.73466022  0.67371762  0.04046270    -0.93810
Zr770      Zr  0.84941575  0.80620720  0.05708537     2.64680
O771        O  0.83593523  0.79319661  0.12225195    -0.98760
O772        O  0.89185766  0.85709523  0.06851062    -0.80830
O773        O  0.78629039  0.78935694  0.05604705    -0.84180
O774        O  0.84215300  0.74180051  0.05250541    -2.18890
O775        O  0.80381676  0.67133549  0.93438446    -0.67570
O776        O  0.86550987  0.67754701  0.94842683    -0.52140
C777        C  0.83749100  0.65844459  0.93744246     0.71200
O778        O  0.82243517  0.86655153  0.92867651    -0.60480
O779        O  0.76678249  0.87505655  0.95836198    -0.52460
C780        C  0.79262669  0.88467334  0.93439158     0.73000
O781        O  0.91201533  0.78898476  0.92779979    -0.71880
O782        O  0.92371581  0.73304566  0.95322293    -0.50550
C783        C  0.93212982  0.76015956  0.93176942     0.74380
O784        O  0.71190121  0.76352380  0.93054899    -0.67210
O785        O  0.71215387  0.81821699  0.96103635    -0.54400
C786        C  0.69635270  0.79448820  0.94045518     0.72760
Zr787      Zr  0.77510423  0.73385974  0.94109911     2.77540
O788        O  0.78260145  0.73836972  0.87379435    -0.97950
O789        O  0.72659909  0.68790101  0.93100175    -0.78780
Zr790      Zr  0.85219862  0.81218646  0.94774881     2.70070
O791        O  0.84755139  0.80585919  0.88077560    -0.80020
O792        O  0.89868215  0.86090408  0.95365994    -0.99110
Zr793      Zr  0.76200295  0.82086837  0.00315726     2.21500
Zr794      Zr  0.86981483  0.72475764  0.99466932     2.11130
O795        O  0.84041316  0.74920328  0.94075925    -2.47790
O796        O  0.78748930  0.79813550  0.94606617    -0.79820
O797        O  0.80535210  0.70624126  0.99295755    -0.72010
O798        O  0.82617133  0.83538985  0.00366540    -2.32970
O799        O  0.75051258  0.75519469  0.99861826    -2.29180
O800        O  0.88000072  0.78813336  0.00125538    -0.73770
H801        H  0.85439811  0.72960437  0.07297049     0.78230
H802        H  0.83007726  0.86163499  0.00500184     0.79310
H803        H  0.85204373  0.74018203  0.91817498     0.81540
H804        H  0.72402605  0.75014284  0.99890524     0.79150
H805        H  0.89732055  0.86710413  0.04344554     0.42180
H806        H  0.88596713  0.88087521  0.96753554     0.41150
H807        H  0.82110984  0.79920123  0.87640676     0.40830
H808        H  0.79903585  0.71749629  0.86707254     0.38760
H809        H  0.72368993  0.67573039  0.95548580     0.41900
H810        H  0.71289501  0.68502218  0.02800594     0.36680
H811        H  0.76821157  0.74017542  0.12733175     0.42800
H812        H  0.80888785  0.79798270  0.12533735     0.39210
H813        H  0.75783958  0.73146987  0.86366093     0.44130
H814        H  0.72557697  0.66765587  0.06581375     0.42850
H815        H  0.83838913  0.76627142  0.12495205     0.42990
H816        H  0.91730090  0.85125461  0.97147002     0.43350
C817        C  0.91507970  0.56241165  0.83405887    -0.20540
C818        C  0.93804918  0.54631592  0.86134431    -0.07100
C819        C  0.97089072  0.56463764  0.87251565     0.13760
C820        C  0.97985278  0.59811683  0.85604972    -0.20590
C821        C  0.95580790  0.61585322  0.83075236    -0.07110
C822        C  0.92314429  0.59732093  0.81908035     0.13750
C823        C  0.89611063  0.61452394  0.79227924    -0.23940
H824        H  0.88991239  0.54809601  0.82550054     0.15040
H825        H  0.00569385  0.61117687  0.86435254     0.15070
C826        C  0.99721729  0.55032845  0.90181652    -0.23890
H827        H  0.87145679  0.59658334  0.78729428     0.05280
H828        H  0.91007649  0.61924510  0.76504211     0.08510
H829        H  0.88592840  0.64106815  0.80378146     0.08510
H830        H  0.02494294  0.54544147  0.88908875     0.08490
H831        H  0.98788990  0.52424519  0.91440315     0.08490
H832        H  0.00040935  0.57096480  0.92446984     0.05270
C833        C  0.84689274  0.56061830  0.89691908    -0.20540
C834        C  0.87828975  0.54834335  0.91714551    -0.07100
C835        C  0.89270167  0.57128956  0.94547442     0.13760
C836        C  0.87551826  0.60469936  0.95319553    -0.20590
C837        C  0.84655977  0.61879256  0.93110367    -0.07110
C838        C  0.83136810  0.59599392  0.90295315     0.13750
C839        C  0.80025091  0.60927256  0.87841650    -0.23940
H840        H  0.83568489  0.54315712  0.87507164     0.15040
H841        H  0.88706736  0.62126899  0.97547102     0.15070
C842        C  0.92755765  0.56321811  0.96683314    -0.23890
H843        H  0.79240155  0.58833131  0.85719613     0.05280
H844        H  0.80916983  0.63456594  0.86359185     0.08510
H845        H  0.77517975  0.61532414  0.89563937     0.08510
H846        H  0.94232287  0.53986895  0.95474494     0.08490
H847        H  0.92063028  0.55768548  0.99642726     0.08490
H848        H  0.94690681  0.58708310  0.96544554     0.05270
C849        C  0.95268619  0.40670754  0.82366178    -0.20540
C850        C  0.91900677  0.41296770  0.84315322    -0.07100
C851        C  0.89082056  0.38633712  0.83594335     0.13760
C852        C  0.90116873  0.35016763  0.82612681    -0.20590
C853        C  0.93848287  0.34211785  0.81774925    -0.07110
C854        C  0.96370106  0.37139070  0.81327181     0.13750
C855        C  0.00229999  0.36555301  0.79766739    -0.23940
H856        H  0.97091090  0.42856699  0.81573434     0.15040
H857        H  0.88009775  0.32885787  0.82364505     0.15070
C858        C  0.85146250  0.39753440  0.82771388    -0.23890
H859        H  0.01802101  0.39176185  0.79476392     0.05280
H860        H  0.00049485  0.35228488  0.76979054     0.08510
H861        H  0.01817119  0.34782955  0.81686370     0.08510
H862        H  0.84643686  0.42679376  0.83478815     0.08490
H863        H  0.83150688  0.37914117  0.84218249     0.08490
H864        H  0.84639839  0.39439522  0.79732260     0.05270
C865        C  0.89312992  0.39088279  0.93614546    -0.20540
C866        C  0.87032834  0.41289522  0.91466700    -0.07100
C867        C  0.83214392  0.40294427  0.91112696     0.13760
C868        C  0.82080089  0.36691220  0.92081029    -0.20590
C869        C  0.84601855  0.34212673  0.93721360    -0.07110
C870        C  0.88245550  0.35587071  0.94711535     0.13750
C871        C  0.91162602  0.33503412  0.96915746    -0.23940
H872        H  0.91937129  0.40177418  0.94577508     0.15040
H873        H  0.79214083  0.35849319  0.91605873     0.15070
C874        C  0.80292381  0.42962116  0.89788276    -0.23890
H875        H  0.93785247  0.35094004  0.97326414     0.05280
H876        H  0.91964178  0.30958758  0.95406414     0.08510
H877        H  0.90101012  0.32885614  0.99749413     0.08510
H878        H  0.81497126  0.45673936  0.89046762     0.08490
H879        H  0.78812451  0.41840453  0.87316735     0.08490
H880        H  0.78207485  0.43400046  0.92042642     0.05270
C881        C  0.89626498  0.57586773  0.15906715    -0.20540
C882        C  0.92161799  0.54615150  0.16128766    -0.07100
C883        C  0.94897105  0.55178964  0.18900725     0.13760
C884        C  0.96537308  0.58695525  0.19110583    -0.20590
C885        C  0.94419842  0.61779370  0.18094981    -0.07110
C886        C  0.90782704  0.61208165  0.16710995     0.13750
C887        C  0.88193078  0.64381016  0.15995354    -0.23940
H888        H  0.86777602  0.57128956  0.15118780     0.15040
H889        H  0.99036698  0.59098673  0.20765588     0.15070
C890        C  0.93869292  0.53829095  0.22745299    -0.23890
H891        H  0.85462857  0.63436050  0.14875219     0.05280
H892        H  0.89473226  0.66272448  0.13929631     0.08510
H893        H  0.87672401  0.65899708  0.18636257     0.08510
H894        H  0.96387116  0.53433992  0.24502696     0.08490
H895        H  0.92185324  0.51299151  0.22614494     0.08490
H896        H  0.92057694  0.55889426  0.24160861     0.05270
C897        C  0.90616815  0.56831117  0.07420109    -0.20540
C898        C  0.87912573  0.54421010  0.08807759    -0.07100
C899        C  0.84118663  0.55563118  0.08908800     0.13760
C900        C  0.83147004  0.59048913  0.07551159    -0.20590
C901        C  0.85869959  0.61535725  0.06294845    -0.07110
C902        C  0.89694936  0.60405987  0.06306744     0.13750
C903        C  0.92899357  0.62974998  0.05419107    -0.23940
H904        H  0.93517548  0.55973909  0.07441883     0.15040
H905        H  0.80242598  0.59884685  0.07635810     0.15070
C906        C  0.81117092  0.53435549  0.10918661    -0.23890
H907        H  0.95654669  0.61700098  0.05997246     0.05280
H908        H  0.92697537  0.65486933  0.07176881     0.08510
H909        H  0.92904398  0.63716407  0.02425502     0.08510
H910        H  0.80020201  0.55124422  0.13262762     0.08490
H911        H  0.82141770  0.50830472  0.12126983     0.08490
H912        H  0.78770709  0.52845616  0.08991460     0.05270
C913        C  0.95671298  0.36905707  0.20439303    -0.20540
C914        C  0.94190149  0.33811691  0.18699189    -0.07100
C915        C  0.90732060  0.34179025  0.16930315     0.13760
C916        C  0.89439784  0.37742110  0.16160143    -0.20590
C917        C  0.91815318  0.40842498  0.16533485    -0.07110
C918        C  0.94429557  0.40434917  0.19489242     0.13750
C919        C  0.95042204  0.43310667  0.22394822    -0.23940
H920        H  0.97485111  0.36526044  0.22801951     0.15040
H921        H  0.86594768  0.38042900  0.15303046     0.15070
C922        C  0.88386750  0.30858577  0.16015324    -0.23890
H923        H  0.93838092  0.42366173  0.25085112     0.05280
H924        H  0.93559209  0.45823840  0.21668231     0.08510
H925        H  0.98071431  0.43763805  0.22837278     0.08510
H926        H  0.87836849  0.29265904  0.18594650     0.08490
H927        H  0.89881302  0.29084247  0.13976093     0.08490
H928        H  0.85650818  0.31643956  0.14814754     0.05270
C929        C  0.87950271  0.34419830  0.07317839    -0.20540
C930        C  0.84075443  0.33751431  0.07504156    -0.07100
C931        C  0.81737168  0.36686141  0.08603900     0.13760
C932        C  0.83369721  0.40135379  0.09522118    -0.20590
C933        C  0.87264652  0.40789836  0.09165184    -0.07110
C934        C  0.89518259  0.37868190  0.07876042     0.13750
C935        C  0.93615485  0.38252061  0.07142161    -0.23940
H936        H  0.89847274  0.32193656  0.06651340     0.15040
H937        H  0.81632973  0.42237638  0.10762974     0.15070
C938        C  0.77574496  0.36201362  0.08847980    -0.23890
H939        H  0.94924501  0.35645053  0.06190353     0.05280
H940        H  0.95070863  0.39062617  0.09737405     0.08510
H941        H  0.93997942  0.40244231  0.04843564     0.08510
H942        H  0.76889354  0.34047991  0.10926098     0.08490
H943        H  0.76459383  0.35382027  0.06079077     0.08490
H944        H  0.76167696  0.38786299  0.09715940     0.05270
C945        C  0.84803395  0.47407404  0.98369679    -0.20540
C946        C  0.88239609  0.47682838  0.96460839    -0.07100
C947        C  0.91521880  0.47755389  0.98665514     0.13760
C948        C  0.91264370  0.48150369  0.02527218    -0.20590
C949        C  0.87950002  0.47613753  0.04509112    -0.07110
C950        C  0.84622075  0.47251444  0.02344742     0.13750
C951        C  0.80830352  0.46868363  0.04065328    -0.23940
H952        H  0.82248130  0.47292246  0.96761814     0.15040
H953        H  0.93734332  0.48973166  0.03988475     0.15070
C954        C  0.95399616  0.47239047  0.97137370    -0.23890
H955        H  0.79564643  0.44209381  0.03203047     0.05280
H956        H  0.79012693  0.49145655  0.03111116     0.08510
H957        H  0.80951993  0.46974497  0.07124413     0.08510
H958        H  0.95449003  0.47188910  0.94078948     0.08490
H959        H  0.96510843  0.44599796  0.98199268     0.08490
H960        H  0.97306827  0.49446962  0.98120932     0.05270
C961        C  0.12920241  0.56452964  0.17135308    -0.20540
C962        C  0.10438538  0.54657738  0.14677063    -0.07100
C963        C  0.06923353  0.56280276  0.13924348     0.13760
C964        C  0.06003685  0.59543463  0.15696549    -0.20590
C965        C  0.08614224  0.61528148  0.17809816    -0.07110
C966        C  0.12096092  0.59938262  0.18627309     0.13750
C967        C  0.14989254  0.61958162  0.20884151    -0.23940
H968        H  0.15595287  0.55196700  0.17731613     0.15040
H969        H  0.03291727  0.60734709  0.15116156     0.15070
C970        C  0.04100181  0.54881392  0.11142502    -0.23890
H971        H  0.17594717  0.60331048  0.21166288     0.05280
H972        H  0.13886462  0.62520850  0.23725342     0.08510
H973        H  0.15708614  0.64594287  0.19504000     0.08510
H974        H  0.01522177  0.54021245  0.12612308     0.08490
H975        H  0.05181999  0.52621753  0.09404080     0.08490
H976        H  0.03251923  0.57116153  0.09230561     0.05270
C977        C  0.19776462  0.55955497  0.10410614    -0.20540
C978        C  0.16233013  0.54894835  0.09052726    -0.07100
C979        C  0.14034325  0.57559779  0.07280865     0.13760
C980        C  0.15225216  0.61207166  0.07246282    -0.20590
C981        C  0.18950879  0.62208572  0.08069496    -0.07110
C982        C  0.21249247  0.59521151  0.09754418     0.13750
C983        C  0.25214868  0.60359224  0.10842148    -0.23940
H984        H  0.21428865  0.53955281  0.11907717     0.15040
H985        H  0.13313432  0.63203269  0.06084985     0.15070
C986        C  0.10578437  0.56628067  0.05092289    -0.23890
H987        H  0.26570029  0.57960172  0.12179720     0.05280
H988        H  0.25267179  0.62686181  0.12854669     0.08510
H989        H  0.26871416  0.61078721  0.08326610     0.08510
H990        H  0.08272573  0.58463865  0.05946538     0.08490
H991        H  0.09739613  0.53728304  0.05383602     0.08490
H992        H  0.11086480  0.57099598  0.02083045     0.05270
C993        C  0.14239318  0.34909157  0.17573481    -0.20540
C994        C  0.10582272  0.33954230  0.18586502    -0.07100
C995        C  0.08070085  0.36799957  0.19312488     0.13760
C996        C  0.08780844  0.40303193  0.17922991    -0.20590
C997        C  0.12141443  0.41157751  0.16065005    -0.07110
C998        C  0.15102487  0.38614680  0.16712983     0.13750
C999        C  0.19053196  0.39893648  0.17307056    -0.23940
H1000       H  0.16413393  0.32842504  0.17590972     0.15040
H1001       H  0.06633112  0.42250864  0.18389300     0.15070
C1002       C  0.04676159  0.36140857  0.21655841    -0.23890
H1003       H  0.19721286  0.39676580  0.20319682     0.05280
H1004       H  0.19452405  0.42807557  0.16494175     0.08510
H1005       H  0.21049004  0.38103011  0.15796616     0.08510
H1006       H  0.05512392  0.34991260  0.24392972     0.08490
H1007       H  0.02827989  0.34157368  0.20214814     0.08490
H1008       H  0.03168975  0.38748904  0.22201461     0.05270
C1009       C  0.20221299  0.40321250  0.08956685    -0.20540
C1010       C  0.16356205  0.41023307  0.08817001    -0.07100
C1011       C  0.13913910  0.38146525  0.07804240     0.13760
C1012       C  0.15345720  0.34616429  0.07290218    -0.20590
C1013       C  0.19210146  0.33859959  0.07458254    -0.07110
C1014       C  0.21684362  0.36773821  0.08302237     0.13750
C1015       C  0.25837632  0.36179709  0.08518796    -0.23940
H1016       H  0.22073924  0.42479901  0.09898840     0.15040
H1017       H  0.13401637  0.32424701  0.06614417     0.15070
C1018       C  0.09796290  0.38767917  0.07181430    -0.23890
H1019       H  0.27348465  0.38769900  0.09182499     0.05280
H1020       H  0.26909939  0.35134643  0.05809920     0.08510
H1021       H  0.26466273  0.34161147  0.10742444     0.08510
H1022       H  0.09397323  0.40976344  0.05100606     0.08490
H1023       H  0.08380053  0.39510905  0.09817617     0.08490
H1024       H  0.08384806  0.36262022  0.06097834     0.05270
C1025       C  0.04062824  0.46149165  0.11725933    -0.20540
C1026       C  0.06103637  0.47526651  0.14721367    -0.07100
C1027       C  0.04057778  0.48757310  0.17874866     0.13760
C1028       C  0.00082094  0.48632503  0.17850923    -0.20590
C1029       C  0.97939650  0.47439254  0.14744740    -0.07110
C1030       C  0.00133300  0.46241345  0.11618540     0.13750
C1031       C  0.98584608  0.45368585  0.07898926    -0.23940
H1032       H  0.05583444  0.45326791  0.09241555     0.15040
H1033       H  0.98708693  0.49435964  0.20357644     0.15070
C1034       C  0.05982109  0.50111528  0.21344236    -0.23890
H1035       H  0.99515083  0.47489951  0.05878750     0.05280
H1036       H  0.95556727  0.45280023  0.08032911     0.08510
H1037       H  0.99676641  0.42678314  0.06920867     0.08510
H1038       H  0.09068430  0.49969655  0.21114196     0.08490
H1039       H  0.05116534  0.48395441  0.23750804     0.08490
H1040       H  0.05172872  0.53008663  0.21895069     0.05270
C1041       C  0.09621913  0.56711901  0.87719741    -0.20540
C1042       C  0.11262788  0.54276104  0.85199528    -0.07100
C1043       C  0.12291403  0.55580328  0.81607167     0.13760
C1044       C  0.11242663  0.59155685  0.80532885    -0.20590
C1045       C  0.09541236  0.61586113  0.83073536    -0.07110
C1046       C  0.09017924  0.60385201  0.86833396     0.13750
C1047       C  0.08121872  0.62939003  0.90065352    -0.23940
H1048       H  0.09060814  0.55782261  0.90532836     0.15040
H1049       H  0.11808026  0.60054081  0.77708997     0.15070
C1050       C  0.14462203  0.53301522  0.78830401    -0.23890
H1051       H  0.08465176  0.61563070  0.92804597     0.05280
H1052       H  0.05190398  0.63899644  0.89968346     0.08510
H1053       H  0.10072835  0.65317012  0.90044389     0.08510
H1054       H  0.15168899  0.50539847  0.79916404     0.08490
H1055       H  0.17083572  0.54733424  0.78058021     0.08490
H1056       H  0.12818896  0.52965337  0.76229964     0.05270
C1057       C  0.21336598  0.59783028  0.89346728    -0.20540
C1058       C  0.20324350  0.61335987  0.92793478    -0.07100
C1059       C  0.18179866  0.59167175  0.95245504     0.13760
C1060       C  0.16349709  0.56049236  0.93984585    -0.20590
C1061       C  0.17281945  0.54453174  0.90583259    -0.07110
C1062       C  0.20004729  0.56244357  0.88316261     0.13750
C1063       C  0.21644732  0.54472635  0.84900423    -0.23940
H1064       H  0.23161893  0.61292085  0.87483283     0.15040
H1065       H  0.14297039  0.54784999  0.95783974     0.15070
C1066       C  0.18025766  0.59930678  0.99312448    -0.23890
H1067       H  0.21255937  0.56307691  0.82475697     0.05280
H1068       H  0.20394952  0.51746003  0.84293948     0.08510
H1069       H  0.24689333  0.54078260  0.85319493     0.08510
H1070       H  0.15422239  0.61465080  0.99906051     0.08490
H1071       H  0.20524033  0.61500948  0.00211604     0.08490
H1072       H  0.18104825  0.57306586  0.00881840     0.05270
C1073       C  0.10137015  0.33862043  0.86277541    -0.20540
C1074       C  0.09679388  0.33465246  0.82406078    -0.07100
C1075       C  0.10216236  0.36565364  0.80112217     0.13760
C1076       C  0.11074756  0.39989594  0.81780375    -0.20590
C1077       C  0.11401191  0.40390780  0.85687183    -0.07110
C1078       C  0.10777802  0.37260803  0.87957602     0.13750
C1079       C  0.10504952  0.37342290  0.92158569    -0.23940
H1080       H  0.09711320  0.31502144  0.88074364     0.15040
H1081       H  0.11543295  0.42363927  0.80023738     0.15070
C1082       C  0.09811876  0.36297143  0.75945013    -0.23890
H1083       H  0.12607966  0.35454432  0.93368138     0.05280
H1084       H  0.07682220  0.36395573  0.93025750     0.08510
H1085       H  0.10923784  0.40087877  0.93378012     0.08510
H1086       H  0.06965478  0.35325995  0.75214434     0.08490
H1087       H  0.11900933  0.34333651  0.74814272     0.08490
H1088       H  0.10270125  0.38997474  0.74582737     0.05270
C1089       C  0.18951024  0.40120667  0.94304767    -0.20540
C1090       C  0.18145949  0.41111703  0.90619848    -0.07100
C1091       C  0.19714727  0.38888354  0.87720965     0.13760
C1092       C  0.21131826  0.35373417  0.88596919    -0.20590
C1093       C  0.21594345  0.34342992  0.92324636    -0.07110
C1094       C  0.21026360  0.37005564  0.95106478     0.13750
C1095       C  0.22633381  0.36566246  0.98923608    -0.23940
H1096       H  0.17814539  0.41582488  0.96641401     0.15040
H1097       H  0.21822806  0.33448070  0.86388051     0.15070
C1098       C  0.20008141  0.40141887  0.83736224    -0.23890
H1099       H  0.21948415  0.38932266  0.00767078     0.05280
H1100       H  0.25720181  0.36349172  0.98720076     0.08510
H1101       H  0.21531378  0.34050535  0.00161257     0.08510
H1102       H  0.22992524  0.40152741  0.82885199     0.08490
H1103       H  0.18932742  0.42967146  0.83334575     0.08490
H1104       H  0.18482103  0.38209952  0.81882873     0.05270
C1105       C  0.19496637  0.48373333  0.98068695    -0.20540
C1106       C  0.16157534  0.47991168  0.96010281    -0.07100
C1107       C  0.12769739  0.47854258  0.98088611     0.13760
C1108       C  0.12815830  0.47686847  0.02016205    -0.20590
C1109       C  0.16121013  0.47932830  0.04094416    -0.07110
C1110       C  0.19520601  0.48391229  0.02056822     0.13750
C1111       C  0.23188964  0.48918226  0.04012013    -0.23940
H1112       H  0.22101041  0.48613441  0.96543262     0.15040
H1113       H  0.10189276  0.47468026  0.03512055     0.15070
C1114       C  0.09040783  0.48042565  0.96202209    -0.23890
H1115       H  0.25523893  0.49271884  0.01998723     0.05280
H1116       H  0.23841526  0.46506061  0.05738059     0.08510
H1117       H  0.23098525  0.51405621  0.05779568     0.08510
H1118       H  0.08719004  0.45622150  0.94424628     0.08490
H1119       H  0.08846325  0.50563875  0.94495109     0.08490
H1120       H  0.06681043  0.48061529  0.98221013     0.05270
C1121       C  0.00178803  0.49249987  0.83455391    -0.20540
C1122       C  0.98236816  0.47256099  0.86233219    -0.07100
C1123       C  0.00454281  0.44734352  0.88332656     0.13760
C1124       C  0.04357767  0.44876751  0.88149827    -0.20590
C1125       C  0.06339804  0.47127776  0.85679073    -0.07110
C1126       C  0.04125380  0.49011109  0.83006505     0.13750
C1127       C  0.05694638  0.50221679  0.79351818    -0.23940
H1128       H  0.98581303  0.50821007  0.81457632     0.15040
H1129       H  0.05862009  0.43033171  0.89929636     0.15070
C1130       C  0.98991039  0.41623441  0.90651883    -0.23890
H1131       H  0.04025912  0.49003150  0.77048051     0.05280
H1132       H  0.08556835  0.49160773  0.78990369     0.08510
H1133       H  0.05565731  0.53256970  0.79121526     0.08510
H1134       H  0.00011934  0.38974820  0.89483169     0.08490
H1135       H  0.95982378  0.41476562  0.90665115     0.08490
H1136       H  0.00020043  0.41866744  0.93556445     0.05270
C1137       C  0.61187640  0.90553283  0.87131731    -0.20540
C1138       C  0.58908798  0.88706751  0.84619581    -0.07100
C1139       C  0.60209069  0.87928516  0.80975217     0.13760
C1140       C  0.63815784  0.89078281  0.79955236    -0.20590
C1141       C  0.66181064  0.90764164  0.82574829    -0.07110
C1142       C  0.64889406  0.91265480  0.86310550     0.13750
C1143       C  0.67380285  0.92237983  0.89580444    -0.23940
H1144       H  0.60105817  0.91236542  0.89873184     0.15040
H1145       H  0.64782882  0.88630442  0.77122812     0.15070
C1146       C  0.57910810  0.85878964  0.78134094    -0.23890
H1147       H  0.65912611  0.91911667  0.92294494     0.05280
H1148       H  0.68319035  0.95137888  0.89484442     0.08510
H1149       H  0.69798609  0.90337867  0.89625401     0.08510
H1150       H  0.57517575  0.87618494  0.75630980     0.08490
H1151       H  0.55122216  0.85076615  0.79212745     0.08490
H1152       H  0.59403057  0.83338687  0.77278757     0.05270
C1153       C  0.60457329  0.84804298  0.93560417    -0.20540
C1154       C  0.58705381  0.83263075  0.90490887    -0.07100
C1155       C  0.60360184  0.80192568  0.88699887     0.13760
C1156       C  0.63893044  0.78904949  0.89900681    -0.20590
C1157       C  0.65746629  0.80569598  0.92928090    -0.07110
C1158       C  0.63848914  0.83488550  0.94873157     0.13750
C1159       C  0.65229809  0.85292948  0.98413821    -0.23940
H1160       H  0.59126790  0.87113934  0.94945793     0.15040
H1161       H  0.65212134  0.76631868  0.88452883     0.15070
C1162       C  0.58351445  0.78235817  0.85595443    -0.23890
H1163       H  0.63138286  0.87216903  0.99592866     0.05280
H1164       H  0.67754293  0.86986654  0.97878570     0.08510
H1165       H  0.65758413  0.83161296  0.00544762     0.08510
H1166       H  0.57866644  0.80142838  0.83254501     0.08490
H1167       H  0.55614845  0.77209713  0.86627531     0.08490
H1168       H  0.59979325  0.75857645  0.84527476     0.05270
C1169       C  0.43582106  0.92359075  0.85802730    -0.20540
C1170       C  0.45161215  0.89163187  0.84440338    -0.07100
C1171       C  0.43182564  0.86997210  0.81830172     0.13760
C1172       C  0.39536448  0.88049179  0.80794472    -0.20590
C1173       C  0.37760110  0.91012335  0.82595762    -0.07110
C1174       C  0.39823574  0.93078651  0.85314720     0.13750
C1175       C  0.38204329  0.95998504  0.87869772    -0.23940
H1176       H  0.45193581  0.94101530  0.87635497     0.15040
H1177       H  0.38021713  0.86461423  0.78728171     0.15070
C1178       C  0.44933993  0.83621467  0.80148580    -0.23890
H1179       H  0.40318134  0.97217585  0.89776885     0.05280
H1180       H  0.36000443  0.94795326  0.89674950     0.08510
H1181       H  0.37088237  0.98286669  0.86249030     0.08510
H1182       H  0.45616443  0.81622478  0.82370939     0.08490
H1183       H  0.47542608  0.84396987  0.78662420     0.08490
H1184       H  0.43031682  0.82254901  0.78128896     0.05270
C1185       C  0.44528428  0.80115643  0.90176168    -0.20540
C1186       C  0.44926253  0.83940912  0.90725082    -0.07100
C1187       C  0.41747415  0.85992510  0.91732525     0.13760
C1188       C  0.38249688  0.84388457  0.91377716    -0.20590
C1189       C  0.37840684  0.80545573  0.91308837    -0.07110
C1190       C  0.41038890  0.78358646  0.90690188     0.13750
C1191       C  0.40803392  0.74233564  0.90677349    -0.23940
H1192       H  0.46963565  0.78501823  0.89435149     0.15040
H1193       H  0.35819333  0.86101391  0.91880802     0.15070
C1194       C  0.41962066  0.89446760  0.94042629    -0.23890
H1195       H  0.43578433  0.72962744  0.90170576     0.05280
H1196       H  0.38874900  0.73303412  0.88443172     0.08510
H1197       H  0.39754810  0.73257592  0.93418246     0.08510
H1198       H  0.42935065  0.88688986  0.96865157     0.08490
H1199       H  0.43832702  0.91518492  0.92862538     0.08490
H1200       H  0.39187172  0.90762883  0.94399273     0.05270
C1201       C  0.66004493  0.89859442  0.13020122    -0.20540
C1202       C  0.66182810  0.90296509  0.16911688    -0.07100
C1203       C  0.62879856  0.89874772  0.19021660     0.13760
C1204       C  0.59460903  0.89197968  0.17143317    -0.20590
C1205       C  0.59350313  0.88580230  0.13240544    -0.07110
C1206       C  0.62726578  0.88911731  0.11176681     0.13750
C1207       C  0.63153042  0.87913915  0.07107861    -0.23940
H1208       H  0.68538766  0.90139738  0.11373040     0.15040
H1209       H  0.56930148  0.88810639  0.18759475     0.15070
C1210       C  0.62980423  0.89997456  0.23215594    -0.23890
H1211       H  0.60562264  0.86889095  0.05801810     0.05280
H1212       H  0.65270754  0.85719416  0.06800626     0.08510
H1213       H  0.64189323  0.90323250  0.05522633     0.08510
H1214       H  0.64178151  0.92629620  0.24218659     0.08490
H1215       H  0.64750627  0.87719055  0.24250617     0.08490
H1216       H  0.60143630  0.89682533  0.24436399     0.05270
C1217       C  0.63279083  0.75870192  0.07881754    -0.20540
C1218       C  0.66424395  0.78029235  0.08780048    -0.07100
C1219       C  0.66108990  0.80307209  0.11938956     0.13760
C1220       C  0.62499541  0.81289838  0.13164212    -0.20590
C1221       C  0.59369622  0.80407558  0.10939247    -0.07110
C1222       C  0.59715420  0.76915199  0.09272852     0.14830
C1223       C  0.56715649  0.74065891  0.09859763    -0.23940
H1224       H  0.63578588  0.73455883  0.06129324     0.15040
H1225       H  0.62206666  0.82869556  0.15680736     0.15070
C1226       C  0.69532764  0.81619819  0.13981374    -0.23890
H1227       H  0.57433583  0.71439111  0.08443133     0.05280
H1228       H  0.53967764  0.75003677  0.08858166     0.08510
H1229       H  0.56443029  0.73516983  0.12891638     0.08510
H1230       H  0.71245828  0.83403350  0.12139806     0.08490
H1231       H  0.71228006  0.79217956  0.14842283     0.08490
H1232       H  0.68789333  0.83183872  0.16536974     0.05270
C1233       C  0.41372376  0.88802477  0.18619328    -0.20540
C1234       C  0.38407964  0.89745281  0.16234982    -0.07100
C1235       C  0.38958310  0.89166723  0.12321869     0.13760
C1236       C  0.42469577  0.88118339  0.10909367    -0.20590
C1237       C  0.45468816  0.87323913  0.13255670    -0.07110
C1238       C  0.44852267  0.87525624  0.17191645     0.13750
C1239       C  0.47871802  0.86601106  0.19943819    -0.23940
H1240       H  0.41030057  0.89178893  0.21599897     0.15040
H1241       H  0.42875730  0.87866580  0.07920838     0.15070
C1242       C  0.35832593  0.89553943  0.09549154    -0.23890
H1243       H  0.48607180  0.89092816  0.21586316     0.05280
H1244       H  0.50443683  0.85553962  0.18586716     0.08510
H1245       H  0.46843969  0.84441062  0.21870693     0.08510
H1246       H  0.35233876  0.92498307  0.09067676     0.08490
H1247       H  0.33312852  0.88083874  0.10574532     0.08490
H1248       H  0.36573536  0.88340529  0.06796902     0.05270
C1249       C  0.41165302  0.78989217  0.04378371    -0.20540
C1250       C  0.38470102  0.79193614  0.07178053    -0.07100
C1251       C  0.39628139  0.79364263  0.10932950     0.13760
C1252       C  0.43464912  0.79877665  0.11714836    -0.20590
C1253       C  0.46103297  0.80353280  0.08809970    -0.07110
C1254       C  0.44958627  0.79108414  0.05236750     0.13750
C1255       C  0.47361875  0.76828491  0.02732697    -0.23940
H1256       H  0.40310613  0.78319903  0.01549950     0.15040
H1257       H  0.44341839  0.80266797  0.14576775     0.15070
C1258       C  0.36827754  0.79274110  0.14065180    -0.23890
H1259       H  0.46021481  0.74108065  0.02256436     0.05280
H1260       H  0.50051778  0.76202310  0.04049208     0.08510
H1261       H  0.47632227  0.78175890  0.99984773     0.08510
H1262       H  0.35307439  0.76612204  0.14033641     0.08490
H1263       H  0.34797252  0.81551586  0.13734459     0.08490
H1264       H  0.38198909  0.79590391  0.16823811     0.05270
C1265       C  0.51651197  0.86085068  0.02197181    -0.20540
C1266       C  0.53303494  0.82826044  0.03489282    -0.07100
C1267       C  0.54715177  0.80425937  0.00607277     0.13760
C1268       C  0.53666475  0.80927189  0.96842496    -0.20590
C1269       C  0.52004520  0.84156926  0.95599299    -0.07110
C1270       C  0.51236669  0.86879212  0.98374509     0.13750
C1271       C  0.50325912  0.90781988  0.97474190    -0.23940
H1272       H  0.50747420  0.88131377  0.04199317     0.15040
H1273       H  0.54434133  0.78883963  0.94771541     0.15070
C1274       C  0.57482679  0.77441763  0.01226767    -0.23890
H1275       H  0.52796122  0.92548769  0.98037584     0.05280
H1276       H  0.47967076  0.91781453  0.99216226     0.08510
H1277       H  0.49533533  0.91036550  0.94561504     0.08510
H1278       H  0.56276365  0.75243106  0.02932523     0.08490
H1279       H  0.60032170  0.78732223  0.02359281     0.08490
H1280       H  0.58379280  0.76083044  0.98592130     0.05270
C1281       C  0.60728475  0.08205776  0.81882382    -0.20540
C1282       C  0.59207292  0.06181957  0.84875918    -0.07100
C1283       C  0.61216536  0.03121427  0.86221291     0.13760
C1284       C  0.64555182  0.02153192  0.84519026    -0.20590
C1285       C  0.66315466  0.04420268  0.81888534    -0.07110
C1286       C  0.64329847  0.07442033  0.80455049     0.13750
C1287       C  0.66025013  0.09917280  0.77558459    -0.23940
H1288       H  0.59156297  0.10474235  0.80752625     0.15040
H1289       H  0.65979350  0.99740145  0.85541005     0.15070
C1290       C  0.60168641  0.00930728  0.89607862    -0.23890
H1291       H  0.64110618  0.12196575  0.76813816     0.05280
H1292       H  0.66631633  0.08315236  0.74986881     0.08510
H1293       H  0.68655489  0.11138639  0.78640494     0.08510
H1294       H  0.59415794  0.98095909  0.88765145     0.08490
H1295       H  0.57904089  0.02215907  0.91190107     0.08490
H1296       H  0.62565812  0.00747649  0.91550358     0.05270
C1297       C  0.61611327  0.10000472  0.92349362    -0.20540
C1298       C  0.59142233  0.12121180  0.90290386    -0.07100
C1299       C  0.60496027  0.15409119  0.88607434     0.13760
C1300       C  0.64154451  0.16676742  0.89446807    -0.20590
C1301       C  0.66653357  0.14449964  0.91437806    -0.07110
C1302       C  0.65401168  0.10860687  0.92474057     0.13750
C1303       C  0.68003390  0.07732807  0.93423280    -0.23940
H1304       H  0.60659484  0.07424913  0.93509310     0.15040
H1305       H  0.65072459  0.19350644  0.88489188     0.15070
C1306       C  0.58129145  0.17551359  0.85903707    -0.23890
H1307       H  0.67077367  0.05175482  0.92016997     0.05280
H1308       H  0.68031738  0.07271248  0.96482684     0.08510
H1309       H  0.70863832  0.08199684  0.92332882     0.08510
H1310       H  0.55504413  0.18499819  0.87217212     0.08490
H1311       H  0.57383237  0.15807471  0.83482073     0.08490
H1312       H  0.59636783  0.20005179  0.84840554     0.05270
C1313       C  0.39434438  0.08936999  0.81145381    -0.20540
C1314       C  0.38270580  0.05285133  0.80733215    -0.07100
C1315       C  0.40965906  0.02524656  0.80978636     0.13760
C1316       C  0.44235165  0.03215794  0.82963791    -0.20590
C1317       C  0.45411975  0.06844996  0.83721983    -0.07110
C1318       C  0.43139446  0.09722163  0.82250156     0.13750
C1319       C  0.44568016  0.13563543  0.81655202    -0.23940
H1320       H  0.37509014  0.11150515  0.80546713     0.15040
H1321       H  0.45733239  0.00850922  0.83884148     0.15070
C1322       C  0.40539049  0.99018459  0.78792837    -0.23890
H1323       H  0.44341119  0.14252494  0.78651084     0.05280
H1324       H  0.47550851  0.13850018  0.82420659     0.08510
H1325       H  0.42850743  0.15557393  0.83251608     0.08510
H1326       H  0.40519426  0.99677171  0.75772895     0.08490
H1327       H  0.37860609  0.97684206  0.79451891     0.08490
H1328       H  0.42882308  0.97089602  0.79296976     0.05270
C1329       C  0.42148234  0.09305894  0.90974397    -0.20540
C1330       C  0.45056156  0.11815748  0.90361702    -0.07100
C1331       C  0.44275201  0.15635471  0.90625762     0.13760
C1332       C  0.40623849  0.16809160  0.91461129    -0.20590
C1333       C  0.37725330  0.14275687  0.91997502    -0.07110
C1334       C  0.38489431  0.10462854  0.91611904     0.13750
C1335       C  0.35459599  0.07563818  0.91708212    -0.23940
H1336       H  0.42718436  0.06389115  0.90801681     0.15040
H1337       H  0.40052721  0.19716464  0.91798743     0.15070
C1338       C  0.47217796  0.18509944  0.89952960    -0.23890
H1339       H  0.36509134  0.04841940  0.90761574     0.05280
H1340       H  0.33151540  0.08351111  0.89810280     0.08510
H1341       H  0.34388416  0.07192614  0.94584935     0.08510
H1342       H  0.48661257  0.18022278  0.87261999     0.08490
H1343       H  0.49236799  0.18451560  0.92255824     0.08490
H1344       H  0.46015757  0.21320389  0.89883037     0.05270
C1345       C  0.52731349  0.99648003  0.81685330    -0.20540
C1346       C  0.52273904  0.01501499  0.85136003    -0.07100
C1347       C  0.51742878  0.99311158  0.88346227     0.13760
C1348       C  0.52299286  0.95525269  0.88152873    -0.20590
C1349       C  0.52368321  0.93618992  0.84778813    -0.07110
C1350       C  0.52515481  0.95729629  0.81455285     0.13750
C1351       C  0.52360536  0.93956649  0.77677612    -0.23940
H1352       H  0.52999345  0.01251230  0.79159802     0.15040
H1353       H  0.52473602  0.94000989  0.90684155     0.15070
C1354       C  0.50413789  0.00884569  0.91986694    -0.23890
H1355       H  0.49979981  0.95108240  0.76086850     0.05280
H1356       H  0.51929718  0.90948502  0.77862152     0.08510
H1357       H  0.54997891  0.94514568  0.76143706     0.08510
H1358       H  0.47566214  0.01994844  0.91580375     0.08490
H1359       H  0.52309865  0.03074852  0.92958906     0.08490
H1360       H  0.50236134  0.98780815  0.94216718     0.05270
C1361       C  0.59107828  0.03454762  0.16928524    -0.20540
C1362       C  0.58521805  0.06796055  0.15058561    -0.07100
C1363       C  0.61032708  0.09691693  0.16034534     0.13760
C1364       C  0.64626593  0.08826693  0.17382010    -0.20590
C1365       C  0.65450045  0.05235203  0.18481383    -0.07110
C1366       C  0.62508237  0.02677045  0.18662331     0.13750
C1367       C  0.62955185  0.99133094  0.20713493    -0.23940
H1368       H  0.56951807  0.01402817  0.17082174     0.15040
H1369       H  0.66719480  0.10963297  0.17690229     0.15070
C1370       C  0.59760236  0.13600990  0.16485706    -0.23890
H1371       H  0.60361620  0.97452057  0.20655379     0.05280
H1372       H  0.63678917  0.99707694  0.23668566     0.08510
H1373       H  0.65218584  0.97543082  0.19406986     0.08510
H1374       H  0.56852788  0.14007622  0.15513320     0.08490
H1375       H  0.61708586  0.15499559  0.15052180     0.08490
H1376       H  0.59810307  0.14329528  0.19495450     0.05270
C1377       C  0.59275685  0.15175645  0.08247198    -0.20540
C1378       C  0.58644982  0.11367129  0.07868872    -0.07100
C1379       C  0.61496842  0.09153962  0.06399021     0.13760
C1380       C  0.65041241  0.10652157  0.05894435    -0.20590
C1381       C  0.65768139  0.14447637  0.06378370    -0.07110
C1382       C  0.62793292  0.16757171  0.07479230     0.13750
C1383       C  0.63280033  0.20851773  0.07841797    -0.23940
H1384       H  0.57042647  0.16900894  0.09296615     0.15040
H1385       H  0.67225294  0.08814484  0.04933772     0.15070
C1386       C  0.60840808  0.05270441  0.05104107    -0.23890
H1387       H  0.60628579  0.22224447  0.08651269     0.05280
H1388       H  0.64203275  0.22013596  0.05132274     0.08510
H1389       H  0.65384803  0.21481625  0.10021890     0.08510
H1390       H  0.57833456  0.04547686  0.05089469     0.08490
H1391       H  0.62429387  0.03339550  0.06886168     0.08490
H1392       H  0.61823810  0.04969299  0.02177530     0.05270
C1393       C  0.41891701  0.03428285  0.19909391    -0.20540
C1394       C  0.38851949  0.05686699  0.19071540    -0.07100
C1395       C  0.39557330  0.09328779  0.17958533     0.13760
C1396       C  0.43159875  0.10217587  0.16676081    -0.20590
C1397       C  0.45869017  0.07437064  0.16263029    -0.07110
C1398       C  0.45504774  0.04466790  0.18800288     0.13750
C1399       C  0.48758755  0.02670905  0.20717088    -0.23940
H1400       H  0.41451204  0.00858869  0.21369074     0.15040
H1401       H  0.43714597  0.12966134  0.15689272     0.15070
C1402       C  0.36524820  0.12191481  0.17995538    -0.23890
H1403       H  0.48405824  0.02983931  0.23779469     0.05280
H1404       H  0.51448880  0.04000878  0.20021664     0.08510
H1405       H  0.48862894  0.99688685  0.20091400     0.08510
H1406       H  0.35519349  0.12604259  0.20898040     0.08490
H1407       H  0.34137952  0.11301130  0.16245172     0.08490
H1408       H  0.37553374  0.14871152  0.16925736     0.05270
C1409       C  0.41523383  0.09689306  0.08701523    -0.20540
C1410       C  0.44766821  0.11844843  0.08838663    -0.07100
C1411       C  0.44367228  0.15721824  0.08415950     0.13760
C1412       C  0.40798768  0.17225590  0.07674579    -0.20590
C1413       C  0.37594135  0.14991885  0.07605942    -0.07110
C1414       C  0.37987405  0.11198860  0.08331638     0.13750
C1415       C  0.34703384  0.08621756  0.08760969    -0.23940
H1416       H  0.41656229  0.06801497  0.09191817     0.15040
H1417       H  0.40531885  0.20137000  0.07106449     0.15070
C1418       C  0.47565437  0.18378640  0.08879003    -0.23890
H1419       H  0.35088122  0.06885119  0.11261238     0.05280
H1420       H  0.34510871  0.06792505  0.06282974     0.08510
H1421       H  0.32036072  0.10111270  0.09177996     0.08510
H1422       H  0.50170847  0.17055411  0.09817459     0.08490
H1423       H  0.46823150  0.20461930  0.11026661     0.08490
H1424       H  0.48106940  0.19798664  0.06196299     0.05270
C1425       C  0.54807352  0.99147167  0.10768855    -0.20540
C1426       C  0.51709561  0.00992422  0.12316751    -0.07100
C1427       C  0.48557509  0.98676874  0.12846974     0.13760
C1428       C  0.49073689  0.94882375  0.13419261    -0.20590
C1429       C  0.52159037  0.92957020  0.11888401    -0.07110
C1430       C  0.54766176  0.95321983  0.10032618     0.13750
C1431       C  0.57013671  0.94171127  0.06711762    -0.23940
H1432       H  0.57169402  0.00711555  0.09820669     0.15040
H1433       H  0.46745971  0.93557481  0.14653339     0.15070
C1434       C  0.44745872  0.99696250  0.11496581    -0.23890
H1435       H  0.56200470  0.95871907  0.04279370     0.05280
H1436       H  0.56443160  0.91309686  0.05889158     0.08510
H1437       H  0.60009395  0.94696505  0.07258162     0.08510
H1438       H  0.42671559  0.99771725  0.13774987     0.08490
H1439       H  0.43755853  0.97623723  0.09434083     0.08490
H1440       H  0.44905827  0.02258869  0.09951875     0.05270
C1441       C  0.53112189  0.14039432  0.01644665    -0.20540
C1442       C  0.51396779  0.11028084  0.03421106    -0.07100
C1443       C  0.49775666  0.08310849  0.01100842     0.13760
C1444       C  0.49785214  0.08751126  0.97209426    -0.20590
C1445       C  0.51807717  0.11534512  0.95365934    -0.07110
C1446       C  0.53465463  0.14273622  0.97706711     0.13750
C1447       C  0.55501073  0.17577537  0.96261415    -0.23940
H1448       H  0.54210516  0.16253846  0.03325557     0.15040
H1449       H  0.48222689  0.06800641  0.95586458     0.15070
C1450       C  0.48194355  0.04793202  0.02656885    -0.23890
H1451       H  0.54216980  0.20116700  0.97415289     0.05280
H1452       H  0.55343890  0.17766863  0.93226832     0.08510
H1453       H  0.58478265  0.17467013  0.97119775     0.08510
H1454       H  0.45633891  0.05375478  0.04256861     0.08490
H1455       H  0.50289863  0.03436392  0.04461634     0.08490
H1456       H  0.47423139  0.02811104  0.00421757     0.05270
C1457       C  0.94008616  0.78741848  0.57530703    -0.20540
C1458       C  0.91489980  0.81682288  0.57073513    -0.07100
C1459       C  0.88859777  0.82006469  0.60049839     0.13760
C1460       C  0.89995509  0.81114990  0.63717669    -0.20590
C1461       C  0.93106371  0.78847552  0.64231495    -0.07110
C1462       C  0.94469522  0.77043286  0.61040649     0.13750
C1463       C  0.95803697  0.73129034  0.61301168    -0.23940
H1464       H  0.95449722  0.77623387  0.55189056     0.15040
H1465       H  0.88331407  0.81952637  0.66100024     0.15070
C1466       C  0.84746345  0.82312085  0.59296307    -0.23890
H1467       H  0.97073062  0.72178246  0.58637736     0.05280
H1468       H  0.93371596  0.71334224  0.61926803     0.08510
H1469       H  0.97820224  0.72777333  0.63607808     0.08510
H1470       H  0.84165247  0.83087029  0.56365302     0.08490
H1471       H  0.83430239  0.79589831  0.59783668     0.08490
H1472       H  0.83415959  0.84265563  0.61252388     0.05270
C1473       C  0.84898427  0.90699609  0.57485417    -0.20540
C1474       C  0.88669593  0.89616850  0.57122431    -0.07100
C1475       C  0.91013603  0.89824299  0.60281231     0.13760
C1476       C  0.89404737  0.90516933  0.63753667    -0.20590
C1477       C  0.85523498  0.91085287  0.64230322    -0.07110
C1478       C  0.83291050  0.91437549  0.61004394     0.13750
C1479       C  0.79223682  0.92454889  0.61233963    -0.23940
H1480       H  0.83117295  0.90646309  0.55047582     0.15040
H1481       H  0.91247996  0.90437971  0.66145768     0.15070
C1482       C  0.95163056  0.89045612  0.60217243    -0.23890
H1483       H  0.77953695  0.92698734  0.58422600     0.05280
H1484       H  0.78918138  0.95145980  0.62673388     0.08510
H1485       H  0.77654520  0.90309096  0.62778297     0.08510
H1486       H  0.96714960  0.91561460  0.61053005     0.08490
H1487       H  0.96227143  0.88122932  0.57481599     0.08490
H1488       H  0.95821782  0.86830278  0.62231517     0.05270
C1489       C  0.84437437  0.87717270  0.41995960    -0.20540
C1490       C  0.87995540  0.88949045  0.43151693    -0.07100
C1491       C  0.90267152  0.90760710  0.40532235     0.13760
C1492       C  0.89151131  0.90880451  0.36786229    -0.20590
C1493       C  0.85469549  0.89975133  0.35631052    -0.07110
C1494       C  0.83089184  0.88335771  0.38326041     0.13750
C1495       C  0.79151237  0.87234874  0.37382262    -0.23940
H1496       H  0.82691593  0.86286165  0.43993287     0.15040
H1497       H  0.91108010  0.92072815  0.34821255     0.15070
C1498       C  0.93770307  0.92812743  0.41641336    -0.23890
H1499       H  0.77715410  0.85940225  0.39793740     0.05280
H1500       H  0.79173231  0.85219218  0.35049173     0.08510
H1501       H  0.77520111  0.89696550  0.36574593     0.08510
H1502       H  0.94593304  0.92309843  0.44564289     0.08490
H1503       H  0.93325188  0.95809423  0.41336503     0.08490
H1504       H  0.96125684  0.92044195  0.39802231     0.05270
C1505       C  0.95809125  0.84335980  0.41401955    -0.20540
C1506       C  0.92820197  0.82628096  0.43169909    -0.07100
C1507       C  0.90818742  0.79867188  0.41241513     0.13760
C1508       C  0.91823411  0.78973022  0.37525018    -0.20590
C1509       C  0.94658360  0.80929866  0.35640900    -0.07110
C1510       C  0.96626551  0.83736936  0.37656470     0.13750
C1511       C  0.99590240  0.86232257  0.35990134    -0.23940
H1512       H  0.97352612  0.86412732  0.42890909     0.15040
H1513       H  0.90327531  0.76814453  0.36065507     0.15070
C1514       C  0.87632666  0.77891782  0.43106620    -0.23890
H1515       H  0.00885281  0.88091215  0.38085106     0.05280
H1516       H  0.98332611  0.87998189  0.33812139     0.08510
H1517       H  0.01922044  0.84631309  0.34816597     0.08510
H1518       H  0.85431326  0.79884167  0.43916378     0.08490
H1519       H  0.88655588  0.76484105  0.45646429     0.08490
H1520       H  0.86362211  0.75799045  0.41233719     0.05270
C1521       C  0.95659477  0.17231532  0.61558843    -0.20540
C1522       C  0.92938849  0.16385086  0.64157218    -0.07100
C1523       C  0.89487194  0.15026210  0.62942059     0.13760
C1524       C  0.89081698  0.14111910  0.59138099    -0.20590
C1525       C  0.92205721  0.13949197  0.56691536    -0.07110
C1526       C  0.95434096  0.15964066  0.57894883     0.13750
C1527       C  0.98715101  0.16916825  0.55554077    -0.23940
H1528       H  0.98178701  0.18606991  0.62525227     0.15040
H1529       H  0.86368853  0.13254120  0.58150058     0.15070
C1530       C  0.86324530  0.14444063  0.65641365    -0.23890
H1531       H  0.00794627  0.18692750  0.56995460     0.05280
H1532       H  0.97691303  0.18557338  0.53206420     0.08510
H1533       H  0.00233553  0.14388540  0.54850808     0.08510
H1534       H  0.85584421  0.17096490  0.66991498     0.08490
H1535       H  0.87178375  0.12453653  0.67817079     0.08490
H1536       H  0.83802307  0.13342721  0.64222164     0.05270
C1537       C  0.84644112  0.06343799  0.57779197    -0.20540
C1538       C  0.88504151  0.06463210  0.57021648    -0.07100
C1539       C  0.91026848  0.05417122  0.59827537     0.13760
C1540       C  0.89664491  0.04548039  0.63376356    -0.20590
C1541       C  0.85813968  0.04516249  0.64185589    -0.07110
C1542       C  0.83264751  0.05381027  0.61320536     0.13750
C1543       C  0.79111209  0.05247425  0.61943662    -0.23940
H1544       H  0.82710511  0.07202309  0.55637726     0.15040
H1545       H  0.91639007  0.03808043  0.65533775     0.15070
C1546       C  0.95142635  0.05107942  0.59087109    -0.23890
H1547       H  0.77542878  0.05875288  0.59354818     0.05280
H1548       H  0.78310284  0.07314259  0.64079743     0.08510
H1549       H  0.78278039  0.02457078  0.62874850     0.08510
H1550       H  0.96228836  0.07714349  0.57948162     0.08490
H1551       H  0.95688869  0.02879809  0.57066553     0.08490
H1552       H  0.96705437  0.04428100  0.61663271     0.05270
C1553       C  0.92472266  0.17134935  0.37597865    -0.20540
C1554       C  0.94659601  0.14689546  0.35468203    -0.07100
C1555       C  0.95517128  0.11166401  0.37018057     0.13760
C1556       C  0.94391909  0.10356750  0.40642400    -0.20590
C1557       C  0.92254554  0.12794702  0.42751011    -0.07110
C1558       C  0.91218652  0.16216201  0.41201229     0.13750
C1559       C  0.88897823  0.18997098  0.43291715    -0.23940
H1560       H  0.91766213  0.19804960  0.36475198     0.15040
H1561       H  0.95158877  0.07743676  0.41867820     0.15070
C1562       C  0.97552605  0.08134326  0.34949393    -0.23890
H1563       H  0.86347479  0.19642521  0.41675663     0.05280
H1564       H  0.90504966  0.21589686  0.43626231     0.08510
H1565       H  0.88059832  0.18025793  0.46099235     0.08510
H1566       H  0.00489610  0.08944647  0.34389342     0.08490
H1567       H  0.96063727  0.07476166  0.32318668     0.08490
H1568       H  0.97671835  0.05542873  0.36573684     0.05270
C1569       C  0.87979866  0.03973095  0.41722534    -0.20540
C1570       C  0.86722910  0.07191523  0.43367137    -0.07100
C1571       C  0.83848645  0.09236234  0.41598569     0.13760
C1572       C  0.82637230  0.08178983  0.38005106    -0.20590
C1573       C  0.83987080  0.04934970  0.36373707    -0.07110
C1574       C  0.86319649  0.02661353  0.38516646     0.13750
C1575       C  0.86767776  0.98690395  0.37716715    -0.23940
H1576       H  0.90151668  0.02361224  0.43027855     0.15040
H1577       H  0.80657321  0.09866956  0.36507954     0.15070
C1578       C  0.81951853  0.12439334  0.43455914    -0.23890
H1579       H  0.86562863  0.97140662  0.40369727     0.05280
H1580       H  0.89510968  0.98250599  0.36345197     0.08510
H1581       H  0.84433983  0.97667884  0.35983624     0.08510
H1582       H  0.82170923  0.14893543  0.41653011     0.08490
H1583       H  0.83138576  0.13084440  0.46236002     0.08490
H1584       H  0.78944843  0.11785563  0.43841595     0.05270
C1585       C  0.91695922  0.00192376  0.50760399    -0.20540
C1586       C  0.88354443  0.02023686  0.50028085    -0.07100
C1587       C  0.85176666  0.99748360  0.49294435     0.13760
C1588       C  0.85542725  0.95807660  0.49217657    -0.20590
C1589       C  0.88932725  0.94008510  0.50125723    -0.07110
C1590       C  0.91987379  0.96357860  0.51058672     0.13750
C1591       C  0.95678363  0.95026750  0.52452222    -0.23940
H1592       H  0.94173039  0.01798783  0.51205715     0.15040
H1593       H  0.83132301  0.94122737  0.48562322     0.15070
C1594       C  0.81380202  0.01406377  0.48706822    -0.23890
H1595       H  0.96406810  0.96464897  0.55089848     0.05280
H1596       H  0.97874277  0.95592922  0.50343030     0.08510
H1597       H  0.95602977  0.92125943  0.53124619     0.08510
H1598       H  0.81351204  0.03153596  0.46196001     0.08490
H1599       H  0.80580956  0.03079079  0.51167256     0.08490
H1600       H  0.79211900  0.99251181  0.48322549     0.05270
C1601       C  0.15106674  0.05993842  0.63511607    -0.20540
C1602       C  0.18956153  0.06290533  0.64147615    -0.07100
C1603       C  0.21327852  0.07273593  0.61159831     0.13760
C1604       C  0.19745567  0.07843934  0.57609065    -0.20590
C1605       C  0.15908764  0.07234026  0.56962320    -0.07110
C1606       C  0.13628316  0.06073906  0.59962424     0.13750
C1607       C  0.09808468  0.04389117  0.59580713    -0.23940
H1608       H  0.13236254  0.05275814  0.65785634     0.15040
H1609       H  0.21515881  0.08683429  0.55306526     0.15070
C1610       C  0.25485883  0.07600419  0.61658035    -0.23890
H1611       H  0.07928963  0.05426236  0.61790285     0.05280
H1612       H  0.10018154  0.01371353  0.59955719     0.08510
H1613       H  0.08502173  0.04960108  0.56893154     0.08510
H1614       H  0.26642691  0.04931715  0.62597191     0.08490
H1615       H  0.26116113  0.09758961  0.63762793     0.08490
H1616       H  0.26905610  0.08360259  0.59012071     0.05270
C1617       C  0.06746032  0.11853980  0.57560071    -0.20540
C1618       C  0.10106315  0.12893348  0.55961478    -0.07100
C1619       C  0.12265793  0.15619943  0.57810332     0.13760
C1620       C  0.11120273  0.16961884  0.61365751    -0.20590
C1621       C  0.07974739  0.15474142  0.63197475    -0.07110
C1622       C  0.05811574  0.12799574  0.61211763     0.13750
C1623       C  0.02647988  0.10606822  0.62900732    -0.23940
H1624       H  0.05038609  0.09866800  0.56133216     0.15040
H1625       H  0.12786711  0.19024517  0.62782004     0.15070
C1626       C  0.15721180  0.17155727  0.55995295    -0.23890
H1627       H  0.01466180  0.08642880  0.60885946     0.05280
H1628       H  0.00396896  0.12427144  0.63844648     0.08510
H1629       H  0.03651065  0.08884216  0.65236772     0.08510
H1630       H  0.14972453  0.18395398  0.53273851     0.08490
H1631       H  0.17798920  0.14953509  0.55512690     0.08490
H1632       H  0.17047143  0.19311626  0.57752507     0.05270
C1633       C  0.08984311  0.10808921  0.36051136    -0.20540
C1634       C  0.10094290  0.14440736  0.35198919    -0.07100
C1635       C  0.11799233  0.16573097  0.38030580     0.13760
C1636       C  0.12341897  0.14987074  0.41573621    -0.20590
C1637       C  0.11034059  0.11421563  0.42382031    -0.07110
C1638       C  0.09170551  0.09403556  0.39618364     0.13750
C1639       C  0.07113594  0.05874041  0.40333421    -0.23940
H1640       H  0.07713048  0.09050265  0.33959420     0.15040
H1641       H  0.13747253  0.16542015  0.43742612     0.15070
C1642       C  0.12972347  0.20492290  0.37388020    -0.23890
H1643       H  0.04073345  0.06333115  0.39970822     0.05280
H1644       H  0.07542958  0.04842666  0.43170144     0.08510
H1645       H  0.08010226  0.03760732  0.38288438     0.08510
H1646       H  0.10500758  0.22171434  0.36639946     0.08490
H1647       H  0.15070537  0.20608503  0.35106083     0.08490
H1648       H  0.14247653  0.21726343  0.39922793     0.05270
C1649       C  0.17921996  0.01982811  0.37831697    -0.20540
C1650       C  0.19922680  0.04717452  0.35924718    -0.07100
C1651       C  0.20692322  0.08072092  0.37745576     0.13760
C1652       C  0.19256307  0.08645982  0.41363505    -0.20590
C1653       C  0.16889533  0.06039534  0.43078100    -0.07110
C1654       C  0.16206755  0.02668081  0.41241994     0.13750
C1655       C  0.13497786  0.99802691  0.42572209    -0.23940
H1656       H  0.17401829  0.99353353  0.36490809     0.15040
H1657       H  0.19759406  0.11247281  0.42761155     0.15070
C1658       C  0.22806777  0.11102992  0.35825526    -0.23890
H1659       H  0.11508089  0.99127057  0.40310747     0.05280
H1660       H  0.11838121  0.00675017  0.45008084     0.08510
H1661       H  0.15040214  0.97264206  0.43228620     0.08510
H1662       H  0.21337564  0.11889421  0.33224768     0.08490
H1663       H  0.25674614  0.10161851  0.35134707     0.08490
H1664       H  0.23038653  0.13588395  0.37620436     0.05270
C1665       C  0.99251755  0.08854853  0.49767259    -0.20540
C1666       C  0.97575836  0.12217339  0.48937743    -0.07100
C1667       C  0.99954336  0.15026470  0.47439682     0.13760
C1668       C  0.03901571  0.14573758  0.47506102    -0.20590
C1669       C  0.05546906  0.11295758  0.48754016    -0.07110
C1670       C  0.03109585  0.08294928  0.49497287     0.13750
C1671       C  0.04435684  0.04427389  0.50033790    -0.23940
H1672       H  0.97515319  0.06608602  0.50645755     0.15040
H1673       H  0.05697750  0.16826144  0.46666690     0.15070
C1674       C  0.98493331  0.18652446  0.46100814    -0.23890
H1675       H  0.03012260  0.02584377  0.48006144     0.05280
H1676       H  0.03748223  0.03470983  0.52888100     0.08510
H1677       H  0.07445794  0.04199109  0.49505611     0.08510
H1678       H  0.95519145  0.18997847  0.46829405     0.08490
H1679       H  0.98884309  0.18860605  0.43037184     0.08490
H1680       H  0.00039585  0.20942515  0.47459644     0.05270
C1681       C  0.07701112  0.80869312  0.57366541    -0.20540
C1682       C  0.11324551  0.81745378  0.56233842    -0.07100
C1683       C  0.14311037  0.80425506  0.58515027     0.13760
C1684       C  0.13512493  0.79049867  0.62138589    -0.20590
C1685       C  0.09796701  0.78461311  0.63253671    -0.07110
C1686       C  0.06995884  0.78926987  0.60593583     0.13750
C1687       C  0.03208453  0.77371004  0.61154195    -0.23940
H1688       H  0.05302146  0.82026245  0.56048691     0.15040
H1689       H  0.15762654  0.78492164  0.64068962     0.15070
C1690       C  0.18314612  0.80425811  0.57232811    -0.23890
H1691       H  0.01525122  0.77644605  0.58582035     0.05280
H1692       H  0.01771688  0.78792733  0.63466833     0.08510
H1693       H  0.03522780  0.74401035  0.61761360     0.08510
H1694       H  0.20043307  0.82101453  0.59163449     0.08490
H1695       H  0.18635420  0.81484664  0.54354120     0.08490
H1696       H  0.19386719  0.77565249  0.57253653     0.05270
C1697       C  0.19564059  0.89448375  0.57238571    -0.20540
C1698       C  0.15689450  0.88729471  0.56975964    -0.07100
C1699       C  0.13490451  0.88984838  0.60292425     0.13760
C1700       C  0.15249684  0.89677597  0.63680594    -0.20590
C1701       C  0.19065536  0.90480372  0.63921750    -0.07110
C1702       C  0.21266550  0.90371086  0.60662452     0.13750
C1703       C  0.25352854  0.91338752  0.60769259    -0.23940
H1704       H  0.21274470  0.89262487  0.54746804     0.15040
H1705       H  0.13543190  0.89826138  0.66186387     0.15070
C1706       C  0.09281984  0.88721296  0.60520414    -0.23890
H1707       H  0.26650042  0.91168804  0.57956573     0.05280
H1708       H  0.26844973  0.89407710  0.62631791     0.08510
H1709       H  0.25712886  0.94189532  0.61829410     0.08510
H1710       H  0.08482529  0.86511785  0.62492211     0.08490
H1711       H  0.07895762  0.88167600  0.57844993     0.08490
H1712       H  0.08133245  0.91330749  0.61650143     0.05270
C1713       C  0.07534484  0.81765886  0.41515240    -0.20540
C1714       C  0.11196208  0.82640927  0.42655841    -0.07100
C1715       C  0.14169583  0.81275132  0.40377493     0.13760
C1716       C  0.13374524  0.80015013  0.36726369    -0.20590
C1717       C  0.09667066  0.79394197  0.35651172    -0.07110
C1718       C  0.06865747  0.79669878  0.38352125     0.13750
C1719       C  0.03265651  0.77559441  0.37991588    -0.23940
H1720       H  0.05105549  0.82767649  0.42926229     0.15040
H1721       H  0.15623413  0.79454591  0.34778348     0.15070
C1722       C  0.18111456  0.80874988  0.41755027    -0.23890
H1723       H  0.01355363  0.78089737  0.40376770     0.05280
H1724       H  0.03889818  0.74572847  0.37928814     0.08510
H1725       H  0.01840165  0.78256153  0.35382109     0.08510
H1726       H  0.18888748  0.77923159  0.41683768     0.08490
H1727       H  0.18455690  0.81840800  0.44669647     0.08490
H1728       H  0.20063187  0.82375279  0.39897097     0.05270
C1729       C  0.19954184  0.89322007  0.42349386    -0.20540
C1730       C  0.16031556  0.89425939  0.42855394    -0.07100
C1731       C  0.13818171  0.90479570  0.39781605     0.13760
C1732       C  0.15492788  0.91004319  0.36293142    -0.20590
C1733       C  0.19403338  0.90904982  0.35729757    -0.07110
C1734       C  0.21664728  0.90101214  0.38852335     0.13750
C1735       C  0.25851148  0.90084659  0.38529122    -0.23940
H1736       H  0.21684375  0.88484244  0.44668323     0.15040
H1737       H  0.13675806  0.91648108  0.33973902     0.15070
C1738       C  0.09708525  0.91318931  0.40153423    -0.23890
H1739       H  0.27196456  0.89451127  0.41238767     0.05280
H1740       H  0.26849512  0.92827451  0.37608236     0.08510
H1741       H  0.26734584  0.87967321  0.36473091     0.08510
H1742       H  0.09278558  0.93404809  0.42364617     0.08490
H1743       H  0.08074968  0.88848939  0.40817653     0.08490
H1744       H  0.08522674  0.92449922  0.37540218     0.05270
C1745       C  0.19001572  0.95580415  0.49259314    -0.20540
C1746       C  0.15650922  0.93791461  0.50398361    -0.07100
C1747       C  0.12905205  0.96071497  0.52084083     0.13760
C1748       C  0.13344010  0.99858444  0.52166677    -0.20590
C1749       C  0.16359877  0.01720187  0.50639209    -0.07110
C1750       C  0.19396943  0.99514920  0.49384425     0.13750
C1751       C  0.23079692  0.01245976  0.48385777    -0.23940
H1752       H  0.21309526  0.93930509  0.48275365     0.15040
H1753       H  0.11055578  0.01406218  0.53180247     0.15070
C1754       C  0.09312409  0.94791797  0.53786311    -0.23890
H1755       H  0.25194541  0.99133227  0.47651283     0.05280
H1756       H  0.24136703  0.02843922  0.50809230     0.08510
H1757       H  0.22804745  0.03104364  0.45977189     0.08510
H1758       H  0.09332659  0.95436439  0.56807082     0.08490
H1759       H  0.08811678  0.91867087  0.53397160     0.08490
H1760       H  0.06950636  0.96318612  0.52533851     0.05270
C1761       C  0.03794494  0.79847290  0.49543997    -0.20540
C1762       C  0.05618459  0.83325764  0.49521000    -0.07100
C1763       C  0.03235497  0.86429546  0.49214436     0.13760
C1764       C  0.99377725  0.86082841  0.49719042    -0.20590
C1765       C  0.97541111  0.82726571  0.50072054    -0.07110
C1766       C  0.99800735  0.79527799  0.49586673     0.13750
C1767       C  0.98116100  0.75804984  0.48860723    -0.23940
H1768       H  0.05484754  0.77384768  0.49397992     0.15040
H1769       H  0.97690253  0.88465903  0.49256471     0.15070
C1770       C  0.04460426  0.90118795  0.47855718    -0.23890
H1771       H  0.99068500  0.74774916  0.46100892     0.05280
H1772       H  0.95018771  0.75893604  0.48829443     0.08510
H1773       H  0.99034891  0.73846016  0.51038855     0.08510
H1774       H  0.03190607  0.90638192  0.45085944     0.08490
H1775       H  0.07493850  0.90386510  0.47597594     0.08490
H1776       H  0.03387852  0.92248259  0.49775517     0.05270
loop_ 
_geom_bond_atom_site_label_1 
_geom_bond_atom_site_label_2 
_geom_bond_distance 
_geom_bond_site_symmetry_2 
_ccdc_geom_bond_type 
C1            C2   1.429       .  A
C1            C6   1.433       .  A
C1         C1682   1.517       .  S
C2            C3   1.427       .  A
C2         C1762   1.537       .  S
C3            C4   1.447       .  A
C3         C1714   1.517       .  S
C4            C5   1.442       .  A
C4         C1730   1.513       .  S
C5            C6   1.437       .  A
C5         C1746   1.534       .  S
C6         C1698   1.507       .  S
C7            C8   1.437       .  A
C7           C12   1.418       .  A
C7         C1618   1.506       .  S
C8            C9   1.433       .  A
C8         C1605   1.488       .  S
C9           C10   1.424       .  A
C9         C1749   1.530       .  S
C10          C11   1.426       .  A
C10        C1653   1.486       .  S
C11          C12   1.403       .  A
C11        C1637   1.479       .  S
C12        C1669   1.519       .  S
C13          C14   1.437       .  A
C13          C18   1.453       .  A
C13        C1525   1.539       .  S
C14          C15   1.417       .  A
C14        C1666   1.526       .  S
C15          C16   1.431       .  A
C15        C1557   1.490       .  S
C16          C17   1.424       .  A
C16        C1570   1.478       .  S
C17          C18   1.421       .  A
C17        C1586   1.546       .  S
C18        C1538   1.495       .  S
C19          C20   1.437       .  A
C19          C24   1.457       .  A
C19        C1458   1.546       .  S
C20          C21   1.424       .  A
C20        C1765   1.534       .  S
C21          C22   1.438       .  A
C21        C1506   1.495       .  S
C22          C23   1.431       .  A
C22        C1490   1.503       .  S
C23          C24   1.435       .  A
C23        C1589   1.551       .  S
C24        C1474   1.493       .  S
C25          C26   1.432       .  A
C25          C30   1.452       .  A
C25        C1410   1.510       .  S
C26          C27   1.425       .  A
C26        C1442   1.520       .  S
C27          C28   1.437       .  A
C27        C1378   1.488       .  S
C28          C29   1.421       .  A
C28        C1362   1.525       .  S
C29          C30   1.419       .  A
C29        C1426   1.556       .  S
C30        C1397   1.527       .  S
C31          C32   1.432       .  A
C31          C36   1.445       .  A
C31        C1330   1.501       .  S
C32          C33   1.431       .  A
C32        C1445   1.541       .  S
C33          C34   1.432       .  A
C33        C1298   1.494       .  S
C34          C35   1.414       .  A
C34        C1282   1.497       .  S
C35          C36   1.426       .  A
C35        C1346   1.517       .  S
C36        C1317   1.523       .  S
C37          C38   1.450       .  A
C37          C42   1.457       .  A
C37        C1237   1.514       .  S
C38          C39   1.443       .  A
C38        C1429   1.564       .  S
C39          C40   1.450       .  A
C39        C1205   1.499       .  S
C40          C41   1.436       .  A
C40        C1221   1.550       .  S
C41          C42   1.438       .  A
C41        C1266   1.553       .  S
C42        C1253   1.531       .  S
C43          C44   1.410       .  A
C43          C48   1.433       .  A
C43        C1170   1.476       .  S
C44          C45   1.407       .  A
C44        C1349   1.518       .  S
C45          C46   1.430       .  A
C45        C1138   1.470       .  S
C46          C47   1.425       .  A
C46        C1154   1.496       .  S
C47          C48   1.415       .  A
C47        C1269   1.527       .  S
C48        C1186   1.491       .  S
C49          C50   1.435       .  A
C49          C54   1.437       .  A
C49        C1077   1.504       .  S
C50          C51   1.436       .  A
C50        C1125   1.542       .  S
C51          C52   1.435       .  A
C51        C1042   1.488       .  S
C52          C53   1.414       .  A
C52        C1061   1.499       .  S
C53          C54   1.421       .  A
C53        C1106   1.535       .  S
C54        C1090   1.510       .  S
C55          C56   1.422       .  A
C55          C60   1.426       .  A
C55         C978   1.497       .  S
C56          C57   1.437       .  A
C56        C1109   1.530       .  S
C57          C58   1.449       .  A
C57        C1010   1.493       .  S
C58          C59   1.432       .  A
C58         C997   1.540       .  S
C59          C60   1.413       .  A
C59        C1026   1.517       .  S
C60         C962   1.487       .  S
C61          C62   1.451       .  A
C61          C66   1.452       .  A
C61         C882   1.552       .  S
C62          C63   1.455       .  A
C62        C1029   1.567       .  S
C63          C64   1.467       .  A
C63         C917   1.552       .  S
C64          C65   1.427       .  A
C64         C933   1.511       .  S
C65          C66   1.421       .  A
C65         C949   1.533       .  S
C66         C898   1.495       .  S
C67          C68   1.424       .  A
C67          C72   1.421       .  A
C67         C818   1.484       .  S
C68          C69   1.441       .  A
C68        C1122   1.542       .  S
C69          C70   1.459       .  A
C69         C850   1.538       .  S
C70          C71   1.424       .  A
C70         C866   1.491       .  S
C71          C72   1.410       .  A
C71         C946   1.520       .  S
C72         C834   1.500       .  S
O73         Zr85   2.487       .  S
O73          C75   1.296       .  A
O74        Zr111   2.373       .  S
O74          C75   1.280       .  A
C75        C1701   1.477       .  S
O76         Zr88   2.399       .  S
O76          C78   1.284       .  A
O77        Zr112   2.499       .  S
O77          C78   1.294       .  A
C78         C290   1.503       .  S
O79         Zr88   2.430       .  S
O79          C81   1.283       .  A
O80        Zr111   2.470       .  S
O80          C81   1.285       .  A
C81         C633   1.484       .  S
O82         Zr85   2.509       .  S
O82          C84   1.301       .  A
O83        Zr112   2.350       .  S
O83          C84   1.268       .  A
C84        C1173   1.488       .  S
Zr85         O86   2.434       .  S
Zr85         O87   2.436       .  S
Zr85         O91   2.393       .  S
Zr85         O92   2.365       .  S
Zr85        O115   2.374       .  S
Zr85        O117   2.380       .  S
O86         H129   0.990       .  S
O87         H128   0.990       .  S
O87         H132   0.990       .  S
Zr88         O89   2.432       .  S
Zr88         O90   2.432       .  S
Zr88         O92   2.364       .  S
Zr88         O91   2.355       .  S
Zr88        O116   2.355       .  S
Zr88        O118   2.359       .  S
O89         H130   0.990       .  S
O89         H133   0.990       .  S
O90         H123   0.990       .  S
O91        Zr111   2.381       .  S
O92        Zr112   2.391       .  S
O92         H119   0.965       .  S
O93        Zr105   2.429       .  S
O93          C95   1.283       .  A
O94        Zr112   2.453   1_545  S
O94          C95   1.292       .  A
C95        C1314   1.479       .  S
O96        Zr108   2.405       .  S
O96          C98   1.283       .  A
O97        Zr111   2.478   1_545  S
O97          C98   1.289       .  A
C98         C143   1.496       .  S
O99        Zr108   2.439       .  S
O99         C101   1.281       .  A
O100       Zr112   2.443   1_545  S
O100        C101   1.281       .  A
C101        C470   1.475       .  S
O102       Zr105   2.460       .  S
O102        C104   1.289       .  A
O103       Zr111   2.360   1_545  S
O103        C104   1.278       .  A
C104       C1602   1.478       .  S
Zr105       O106   2.435       .  S
Zr105       O107   2.435       .  S
Zr105       O113   2.390       .  S
Zr105       O114   2.370       .  S
Zr105       O117   2.368   1_545  S
Zr105       O115   2.387   1_545  S
O106        H126   0.990       .  S
O106        H131   0.990       .  S
O107        H127   0.990       .  S
Zr108       O109   2.420       .  S
Zr108       O110   2.429       .  S
Zr108       O114   2.364       .  S
Zr108       O113   2.359       .  S
Zr108       O118   2.353   1_545  S
Zr108       O116   2.360   1_545  S
O109        H125   0.990       .  S
O110        H124   0.989       .  S
O110        H134   0.987       .  S
Zr111       O114   2.385   1_565  S
Zr111       O116   2.373       .  S
Zr111       O117   2.409       .  S
Zr112       O113   2.397   1_565  S
Zr112       O115   2.403       .  S
Zr112       O118   2.376       .  S
O113        H121   0.966       .  S
O116        H120   0.966       .  S
O117        H122   0.966       .  S
O135       Zr147   2.518       .  S
O135        C137   1.301       .  A
O136       Zr173   2.369       .  S
O136        C137   1.272       .  A
C137       C1621   1.508       .  S
O138       Zr150   2.365       .  S
O138        C140   1.275       .  A
O139       Zr174   2.483       .  S
O139        C140   1.289       .  A
C140        C473   1.487       .  S
O141       Zr150   2.361       .  S
O141        C143   1.274       .  A
O142       Zr173   2.507       .  S
O142        C143   1.295       .  A
O144       Zr147   2.493       .  S
O144        C146   1.298       .  A
O145       Zr174   2.371       .  S
O145        C146   1.280       .  A
C146       C1074   1.487       .  S
Zr147       O148   2.434       .  S
Zr147       O149   2.434       .  S
Zr147       O153   2.381       .  S
Zr147       O154   2.388       .  S
Zr147       O177   2.389       .  S
Zr147       O179   2.376       .  S
O148        H191   0.990       .  S
O149        H190   0.990       .  S
O149        H194   0.990       .  S
Zr150       O151   2.421       .  S
Zr150       O152   2.436       .  S
Zr150       O154   2.348       .  S
Zr150       O153   2.356       .  S
Zr150       O178   2.330       .  S
Zr150       O180   2.338       .  S
O151        H192   0.990       .  S
O151        H195   0.988       .  S
O152        H185   0.990       .  S
O153       Zr173   2.380       .  S
O154       Zr174   2.396       .  S
O154        H181   0.966       .  S
O155       Zr167   2.453       .  S
O155        C157   1.289       .  A
O156       Zr174   2.412   1_655  S
O156        C157   1.284       .  A
C157        C853   1.469       .  S
O158       Zr170   2.402       .  S
O158        C160   1.281       .  A
O159       Zr173   2.450   1_655  S
O159        C160   1.289       .  A
C160        C701   1.461       .  S
O161       Zr170   2.406       .  S
O161        C163   1.280       .  A
O162       Zr174   2.466   1_655  S
O162        C163   1.292       .  A
C163        C591   1.472       .  S
O164       Zr167   2.427       .  S
O164        C166   1.284       .  A
O165       Zr173   2.433   1_655  S
O165        C166   1.290       .  A
C166       C1522   1.461       .  S
Zr167       O168   2.436       .  S
Zr167       O169   2.434       .  S
Zr167       O175   2.370       .  S
Zr167       O176   2.378       .  S
Zr167       O179   2.383   1_655  S
Zr167       O177   2.366   1_655  S
O168        H188   0.990       .  S
O168        H193   0.990       .  S
O169        H189   0.990       .  S
Zr170       O171   2.441       .  S
Zr170       O172   2.428       .  S
Zr170       O176   2.339       .  S
Zr170       O175   2.358       .  S
Zr170       O180   2.359   1_655  S
Zr170       O178   2.353   1_655  S
O171        H187   0.990       .  S
O172        H186   0.990       .  S
O172        H196   0.990       .  S
Zr173       O176   2.376   1_455  S
Zr173       O178   2.358       .  S
Zr173       O179   2.414       .  S
Zr174       O175   2.382   1_455  S
Zr174       O177   2.405       .  S
Zr174       O180   2.364       .  S
O175        H183   0.966       .  S
O178        H182   0.966       .  S
O179        H184   0.966       .  S
O197       Zr209   2.437       .  S
O197        C199   1.284       .  A
O198       Zr235   2.439       .  S
O198        C199   1.290       .  A
C199       C1717   1.472       .  S
O200       Zr212   2.426       .  S
O200        C202   1.279       .  A
O201       Zr236   2.465       .  S
O201        C202   1.285       .  A
C202        C270   1.480       .  S
O203       Zr212   2.390       .  S
O203        C205   1.280       .  A
O204       Zr235   2.469       .  S
O204        C205   1.287       .  A
C205        C385   1.487       .  S
O206       Zr209   2.461       .  S
O206        C208   1.290       .  A
O207       Zr236   2.359       .  S
O207        C208   1.278       .  A
C208        C965   1.471       .  S
Zr209       O210   2.433       .  S
Zr209       O211   2.438       .  S
Zr209       O215   2.387       .  S
Zr209       O216   2.374       .  S
Zr209       O239   2.363       .  S
Zr209       O241   2.383       .  S
O210        H253   0.990       .  S
O211        H252   0.990       .  S
O211        H256   0.990       .  S
Zr212       O213   2.413       .  S
Zr212       O214   2.432       .  S
Zr212       O216   2.368       .  S
Zr212       O215   2.361       .  S
Zr212       O240   2.359       .  S
Zr212       O242   2.341       .  S
O213        H254   0.989       .  S
O213        H257   0.988       .  S
O214        H247   0.990       .  S
O215       Zr235   2.382       .  S
O216       Zr236   2.390       .  S
O216        H243   0.966       .  S
O217       Zr229   2.482       .  S
O217        C219   1.296       .  A
O218       Zr236   2.407   1_655  S
O218        C219   1.283       .  A
C219        C885   1.476       .  S
O220       Zr232   2.397       .  S
O220        C222   1.280       .  A
O221       Zr235   2.475   1_655  S
O221        C222   1.288       .  A
C222        C538   1.491       .  S
O223       Zr232   2.443       .  S
O223        C225   1.281       .  A
O224       Zr236   2.429   1_655  S
O224        C225   1.278       .  A
C225        C760   1.467       .  S
O226       Zr229   2.499       .  S
O226        C228   1.298       .  A
O227       Zr235   2.381   1_655  S
O227        C228   1.274       .  A
C228       C1509   1.501       .  S
Zr229       O230   2.435       .  S
Zr229       O231   2.434       .  S
Zr229       O237   2.387       .  S
Zr229       O238   2.373       .  S
Zr229       O241   2.378   1_655  S
Zr229       O239   2.377   1_655  S
O230        H250   0.990       .  S
O230        H255   0.990       .  S
O231        H251   0.990       .  S
Zr232       O233   2.421       .  S
Zr232       O234   2.433       .  S
Zr232       O238   2.364       .  S
Zr232       O237   2.362       .  S
Zr232       O242   2.343   1_655  S
Zr232       O240   2.375   1_655  S
O233        H249   0.990       .  S
O234        H248   0.990       .  S
O234        H258   0.990       .  S
Zr235       O238   2.394   1_455  S
Zr235       O240   2.384       .  S
Zr235       O241   2.413       .  S
Zr236       O237   2.406   1_455  S
Zr236       O239   2.395       .  S
Zr236       O242   2.369       .  S
O237        H245   0.966       .  S
O240        H244   0.966       .  S
O241        H246   0.964       .  S
O259       Zr271   2.398       .  S
O259        C261   1.283       .  A
O260       Zr297   2.472   1_554  S
O260        C261   1.285       .  A
C261        C394   1.496       .  S
O262       Zr274   2.507       .  S
O262        C264   1.298       .  A
O263       Zr298   2.370   1_554  S
O263        C264   1.279       .  A
C264        C981   1.509       .  S
O265       Zr274   2.450       .  S
O265        C267   1.290       .  A
O266       Zr297   2.427   1_554  S
O266        C267   1.289       .  A
C267       C1250   1.471       .  S
O268       Zr271   2.402       .  S
O268        C270   1.282       .  A
O269       Zr298   2.478   1_554  S
O269        C270   1.294       .  A
Zr271       O272   2.430       .  S
Zr271       O273   2.424       .  S
Zr271       O277   2.341       .  S
Zr271       O278   2.348       .  S
Zr271       O301   2.352   1_554  S
Zr271       O303   2.353   1_554  S
O272        H315   0.990       .  S
O273        H314   0.990       .  S
O273        H318   0.987       .  S
Zr274       O275   2.435       .  S
Zr274       O276   2.435       .  S
Zr274       O278   2.364       .  S
Zr274       O277   2.391       .  S
Zr274       O302   2.394   1_554  S
Zr274       O304   2.368   1_554  S
O275        H316   0.990       .  S
O275        H319   0.990       .  S
O276        H309   0.990       .  S
O277       Zr297   2.385   1_554  S
O278       Zr298   2.375   1_554  S
O278        H305   0.966       .  S
O279       Zr291   2.424       .  S
O279        C281   1.277       .  A
O280       Zr298   2.431       .  S
O280        C281   1.279       .  A
C281        C642   1.464       .  S
O282       Zr294   2.484       .  S
O282        C284   1.294       .  A
O283       Zr297   2.354       .  S
O283        C284   1.277       .  A
C284       C1189   1.482       .  S
O285       Zr294   2.484       .  S
O285        C287   1.295       .  A
O286       Zr298   2.407       .  S
O286        C287   1.286       .  A
C287       C1058   1.496       .  S
O288       Zr291   2.377       .  S
O288        C290   1.277       .  A
O289       Zr297   2.510       .  S
O289        C290   1.295       .  A
Zr291       O292   2.431       .  S
Zr291       O293   2.428       .  S
Zr291       O299   2.360       .  S
Zr291       O300   2.370       .  S
Zr291       O303   2.369       .  S
Zr291       O301   2.346       .  S
O292        H312   0.990       .  S
O292        H317   0.989       .  S
O293        H313   0.990       .  S
Zr294       O295   2.435       .  S
Zr294       O296   2.435       .  S
Zr294       O300   2.390       .  S
Zr294       O299   2.384       .  S
Zr294       O304   2.386       .  S
Zr294       O302   2.377       .  S
O295        H311   0.990       .  S
O296        H310   0.990       .  S
O296        H320   0.990       .  S
Zr297       O300   2.398       .  S
Zr297       O302   2.424       .  S
Zr297       O303   2.376       .  S
Zr298       O299   2.396       .  S
Zr298       O301   2.363       .  S
Zr298       O304   2.397       .  S
O299        H307   0.965       .  S
O302        H306   0.966       .  S
O303        H308   0.966       .  S
O321       Zr333   2.380       .  S
O321        C323   1.279       .  A
O322       Zr359   2.448       .  S
O322        C323   1.282       .  A
C323        C414   1.474       .  S
O324       Zr336   2.463       .  S
O324        C326   1.291       .  A
O325       Zr360   2.432       .  S
O325        C326   1.291       .  A
C326        C994   1.479       .  S
O327       Zr336   2.482       .  S
O327        C329   1.293       .  A
O328       Zr359   2.343       .  S
O328        C329   1.272       .  A
C329       C1634   1.490       .  S
O330       Zr333   2.388       .  S
O330        C332   1.279       .  A
O331       Zr360   2.504       .  S
O331        C332   1.301       .  A
C332        C450   1.484       .  S
Zr333       O334   2.420       .  S
Zr333       O335   2.434       .  S
Zr333       O339   2.347       .  S
Zr333       O340   2.362       .  S
Zr333       O363   2.343       .  S
Zr333       O365   2.348       .  S
O334        H377   0.990       .  S
O335        H376   0.990       .  S
O335        H380   0.990       .  S
Zr336       O337   2.435       .  S
Zr336       O338   2.435       .  S
Zr336       O340   2.385       .  S
Zr336       O339   2.375       .  S
Zr336       O364   2.380       .  S
Zr336       O366   2.382       .  S
O337        H378   0.990       .  S
O337        H381   0.990       .  S
O338        H371   0.990       .  S
O339       Zr359   2.370       .  S
O340       Zr360   2.392       .  S
O340        H367   0.966       .  S
O341       Zr353   2.413       .  S
O341        C343   1.274       .  A
O342       Zr360   2.492   1_655  S
O342        C343   1.291       .  A
C343        C580   1.489       .  S
O344       Zr356   2.486       .  S
O344        C346   1.296       .  A
O345       Zr359   2.365   1_655  S
O345        C346   1.271       .  A
C346       C1554   1.497       .  S
O347       Zr356   2.439       .  S
O347        C349   1.287       .  A
O348       Zr360   2.438   1_655  S
O348        C349   1.291       .  A
C349        C914   1.468       .  S
O350       Zr353   2.404       .  S
O350        C352   1.283       .  A
O351       Zr359   2.429   1_655  S
O351        C352   1.277       .  A
C352        C509   1.473       .  S
Zr353       O354   2.429       .  S
Zr353       O355   2.427       .  S
Zr353       O361   2.364       .  S
Zr353       O362   2.357       .  S
Zr353       O365   2.352   1_655  S
Zr353       O363   2.356   1_655  S
O354        H374   0.989       .  S
O354        H379   0.986       .  S
O355        H375   0.990       .  S
Zr356       O357   2.434       .  S
Zr356       O358   2.435       .  S
Zr356       O362   2.366       .  S
Zr356       O361   2.385       .  S
Zr356       O366   2.387   1_655  S
Zr356       O364   2.363   1_655  S
O357        H373   0.990       .  S
O358        H372   0.990       .  S
O358        H382   0.990       .  S
Zr359       O362   2.376   1_455  S
Zr359       O364   2.399       .  S
Zr359       O365   2.364       .  S
Zr360       O361   2.408   1_455  S
Zr360       O363   2.371       .  S
Zr360       O366   2.412       .  S
O361        H369   0.965       .  S
O364        H368   0.966       .  S
O365        H370   0.966       .  S
O383       Zr395   2.368       .  S
O383        C385   1.275       .  A
O384       Zr421   2.484       .  S
O384        C385   1.290       .  A
O386       Zr398   2.567       .  S
O386        C388   1.314       .  A
O387       Zr422   2.385       .  S
O387        C388   1.280       .  A
C388       C1234   1.519       .  S
O389       Zr398   2.549       .  S
O389        C391   1.309       .  A
O390       Zr421   2.364       .  S
O390        C391   1.278       .  A
C391       C1733   1.513       .  S
O392       Zr395   2.337       .  S
O392        C394   1.270       .  A
O393       Zr422   2.519       .  S
O393        C394   1.298       .  A
Zr395       O396   2.430       .  S
Zr395       O397   2.433       .  S
Zr395       O401   2.339       .  S
Zr395       O402   2.351       .  S
Zr395       O425   2.349       .  S
Zr395       O427   2.338       .  S
O396        H439   0.990       .  S
O397        H438   0.990       .  S
O397        H442   0.990       .  S
Zr398       O399   2.434       .  S
Zr398       O400   2.435       .  S
Zr398       O402   2.377       .  S
Zr398       O401   2.398       .  S
Zr398       O426   2.383       .  S
Zr398       O428   2.379       .  S
O399        H440   0.990       .  S
O399        H443   0.990       .  S
O400        H433   0.990       .  S
O401       Zr421   2.389       .  S
O402       Zr422   2.401       .  S
O402        H429   0.966       .  S
O403       Zr415   2.396       .  S
O403        C405   1.270       .  A
O404       Zr422   2.496   1_545  S
O404        C405   1.293       .  A
C405        C453   1.489       .  S
O406       Zr418   2.472       .  S
O406        C408   1.291       .  A
O407       Zr421   2.380   1_545  S
O407        C408   1.280       .  A
C408       C1650   1.478       .  S
O409       Zr418   2.428       .  S
O409        C411   1.283       .  A
O410       Zr422   2.443   1_545  S
O410        C411   1.292       .  A
C411       C1394   1.467       .  S
O412       Zr415   2.362       .  S
O412        C414   1.274       .  A
O413       Zr421   2.464   1_545  S
O413        C414   1.286       .  A
Zr415       O416   2.430       .  S
Zr415       O417   2.432       .  S
Zr415       O423   2.367       .  S
Zr415       O424   2.367       .  S
Zr415       O427   2.364   1_545  S
Zr415       O425   2.348   1_545  S
O416        H436   0.989       .  S
O416        H441   0.988       .  S
O417        H437   0.990       .  S
Zr418       O419   2.435       .  S
Zr418       O420   2.438       .  S
Zr418       O424   2.368       .  S
Zr418       O423   2.388       .  S
Zr418       O428   2.387   1_545  S
Zr418       O426   2.362   1_545  S
O419        H435   0.990       .  S
O420        H434   0.990       .  S
O420        H444   0.990       .  S
Zr421       O424   2.385   1_565  S
Zr421       O426   2.415       .  S
Zr421       O427   2.361       .  S
Zr422       O423   2.400   1_565  S
Zr422       O425   2.370       .  S
Zr422       O428   2.419       .  S
O423        H431   0.965       .  S
O426        H430   0.964       .  S
O427        H432   0.966       .  S
O445       Zr457   2.501       .  S
O445        C447   1.298       .  A
O446       Zr483   2.370   1_554  S
O446        C447   1.278       .  A
C447       C1413   1.482       .  S
O448       Zr460   2.442       .  S
O448        C450   1.282       .  A
O449       Zr484   2.460   1_554  S
O449        C450   1.281       .  A
O451       Zr460   2.471       .  S
O451        C453   1.294       .  A
O452       Zr483   2.436   1_554  S
O452        C453   1.284       .  A
O454       Zr457   2.507       .  S
O454        C456   1.300       .  A
O455       Zr484   2.352   1_554  S
O455        C456   1.276       .  A
C456       C1013   1.492       .  S
Zr457       O458   2.436       .  S
Zr457       O459   2.435       .  S
Zr457       O463   2.395       .  S
Zr457       O464   2.380       .  S
Zr457       O487   2.379   1_554  S
Zr457       O489   2.380   1_554  S
O458        H501   0.990       .  S
O459        H500   0.990       .  S
O459        H504   0.990       .  S
Zr460       O461   2.431       .  S
Zr460       O462   2.421       .  S
Zr460       O464   2.369       .  S
Zr460       O463   2.359       .  S
Zr460       O488   2.362   1_554  S
Zr460       O490   2.377   1_554  S
O461        H502   0.988       .  S
O461        H505   0.990       .  S
O462        H495   0.990       .  S
O463       Zr483   2.389   1_554  S
O464       Zr484   2.408   1_554  S
O464        H491   0.964       .  S
O465       Zr477   2.463       .  S
O465        C467   1.290       .  A
O466       Zr484   2.422       .  S
O466        C467   1.288       .  A
C467       C1093   1.479       .  S
O468       Zr480   2.385       .  S
O468        C470   1.278       .  A
O469       Zr483   2.485       .  S
O469        C470   1.295       .  A
O471       Zr480   2.377       .  S
O471        C473   1.278       .  A
O472       Zr484   2.474       .  S
O472        C473   1.287       .  A
O474       Zr477   2.491       .  S
O474        C476   1.298       .  A
O475       Zr483   2.359       .  S
O475        C476   1.274       .  A
C476       C1333   1.479       .  S
Zr477       O478   2.435       .  S
Zr477       O479   2.434       .  S
Zr477       O485   2.389       .  S
Zr477       O486   2.377       .  S
Zr477       O489   2.362       .  S
Zr477       O487   2.384       .  S
O478        H498   0.990       .  S
O478        H503   0.990       .  S
O479        H499   0.990       .  S
Zr480       O481   2.428       .  S
Zr480       O482   2.434       .  S
Zr480       O486   2.350       .  S
Zr480       O485   2.355       .  S
Zr480       O490   2.344       .  S
Zr480       O488   2.365       .  S
O481        H497   0.990       .  S
O482        H496   0.990       .  S
O482        H506   0.990       .  S
Zr483       O486   2.360       .  S
Zr483       O488   2.354       .  S
Zr483       O489   2.406       .  S
Zr484       O485   2.378       .  S
Zr484       O487   2.407       .  S
Zr484       O490   2.377       .  S
O485        H493   0.966       .  S
O488        H492   0.966       .  S
O489        H494   0.965       .  S
O507       Zr519   2.335       .  S
O507        C509   1.269       .  A
O508       Zr545   2.483   1_545  S
O508        C509   1.291       .  A
O510       Zr522   2.476       .  S
O510        C512   1.294       .  A
O511       Zr546   2.415   1_545  S
O511        C512   1.286       .  A
C512       C1365   1.479       .  S
O513       Zr522   2.459       .  S
O513        C515   1.290       .  A
O514       Zr545   2.410   1_545  S
O514        C515   1.287       .  A
C515       C1573   1.483       .  S
O516       Zr519   2.354       .  S
O516        C518   1.273       .  A
O517       Zr546   2.488   1_545  S
O517        C518   1.294       .  A
C518        C571   1.473       .  S
Zr519       O520   2.427       .  S
Zr519       O521   2.438       .  S
Zr519       O525   2.351       .  S
Zr519       O526   2.350       .  S
Zr519       O549   2.341   1_545  S
Zr519       O551   2.346   1_545  S
O520        H563   0.990       .  S
O521        H562   0.990       .  S
O521        H566   0.989       .  S
Zr522       O523   2.435       .  S
Zr522       O524   2.434       .  S
Zr522       O526   2.376       .  S
Zr522       O525   2.382       .  S
Zr522       O550   2.386   1_545  S
Zr522       O552   2.368   1_545  S
O523        H564   0.990       .  S
O523        H567   0.990       .  S
O524        H557   0.990       .  S
O525       Zr545   2.383   1_545  S
O526       Zr546   2.380   1_545  S
O526        H553   0.966       .  S
O527       Zr539   2.417       .  S
O527        C529   1.279       .  A
O528       Zr546   2.490       .  S
O528        C529   1.290       .  A
C529        C763   1.489       .  S
O530       Zr542   2.535       .  S
O530        C532   1.306       .  A
O531       Zr545   2.380       .  S
O531        C532   1.281       .  A
C532       C1493   1.522       .  S
O533       Zr542   2.523       .  S
O533        C535   1.304       .  A
O534       Zr546   2.340       .  S
O534        C535   1.275       .  A
C535       C1202   1.486       .  S
O536       Zr539   2.381       .  S
O536        C538   1.278       .  A
O537       Zr545   2.486       .  S
O537        C538   1.292       .  A
Zr539       O540   2.422       .  S
Zr539       O541   2.435       .  S
Zr539       O547   2.358       .  S
Zr539       O548   2.363       .  S
Zr539       O551   2.351       .  S
Zr539       O549   2.351       .  S
O540        H560   0.989       .  S
O540        H565   0.989       .  S
O541        H561   0.990       .  S
Zr542       O543   2.434       .  S
Zr542       O544   2.435       .  S
Zr542       O548   2.381       .  S
Zr542       O547   2.388       .  S
Zr542       O552   2.384       .  S
Zr542       O550   2.377       .  S
O543        H559   0.990       .  S
O544        H558   0.990       .  S
O544        H568   0.990       .  S
Zr545       O548   2.388       .  S
Zr545       O550   2.419       .  S
Zr545       O551   2.363       .  S
Zr546       O547   2.404       .  S
Zr546       O549   2.357       .  S
Zr546       O552   2.411       .  S
O547        H555   0.965       .  S
O550        H554   0.965       .  S
O551        H556   0.966       .  S
O569       Zr581   2.423       .  S
O569        C571   1.278       .  A
O570       Zr607   2.460   1_554  S
O570        C571   1.282       .  A
O572       Zr584   2.515       .  S
O572        C574   1.299       .  A
O573       Zr608   2.340       .  S
O573        C574   1.273       .  A
C574        C930   1.501       .  S
O575       Zr584   2.507       .  S
O575        C577   1.300       .  A
O576       Zr607   2.348   1_554  S
O576        C577   1.275       .  A
C577       C1381   1.491       .  S
O578       Zr581   2.439       .  S
O578        C580   1.288       .  A
O579       Zr608   2.461       .  S
O579        C580   1.289       .  A
Zr581       O582   2.433       .  S
Zr581       O583   2.412       .  S
Zr581       O587   2.352       .  S
Zr581       O588   2.358       .  S
Zr581       O611   2.358       .  S
Zr581       O613   2.376   1_554  S
O582        H625   0.990       .  S
O583        H624   0.990       .  S
O583        H628   0.987       .  S
Zr584       O585   2.434       .  S
Zr584       O586   2.435       .  S
Zr584       O588   2.395       .  S
Zr584       O587   2.388       .  S
Zr584       O612   2.380   1_554  S
Zr584       O614   2.370   1_554  S
O585        H626   0.990       .  S
O585        H629   0.990       .  S
O586        H619   0.990       .  S
O587       Zr607   2.376   1_554  S
O588       Zr608   2.375       .  S
O588        H615   0.966       .  S
O589       Zr601   2.422       .  S
O589        C591   1.275       .  A
O590       Zr608   2.446   1_556  S
O590        C591   1.277       .  A
O592       Zr604   2.531       .  S
O592        C594   1.304       .  A
O593       Zr607   2.343       .  S
O593        C594   1.269       .  A
C594       C1301   1.505       .  S
O595       Zr604   2.527       .  S
O595        C597   1.303       .  A
O596       Zr608   2.335   1_556  S
O596        C597   1.264       .  A
C597        C869   1.503       .  S
O598       Zr601   2.415       .  S
O598        C600   1.282       .  A
O599       Zr607   2.459       .  S
O599        C600   1.290       .  A
C600        C698   1.473       .  S
Zr601       O602   2.409       .  S
Zr601       O603   2.421       .  S
Zr601       O609   2.362       .  S
Zr601       O610   2.368       .  S
Zr601       O613   2.339       .  S
Zr601       O611   2.364   1_556  S
O602        H622   0.988       .  S
O602        H627   0.984       .  S
O603        H623   0.990       .  S
Zr604       O605   2.434       .  S
Zr604       O606   2.435       .  S
Zr604       O610   2.396       .  S
Zr604       O609   2.389       .  S
Zr604       O614   2.380       .  S
Zr604       O612   2.374       .  S
O605        H621   0.990       .  S
O606        H620   0.990       .  S
O606        H630   0.990       .  S
Zr607       O610   2.377       .  S
Zr607       O612   2.409       .  S
Zr607       O613   2.354       .  S
Zr608       O609   2.388   1_554  S
Zr608       O611   2.349       .  S
Zr608       O614   2.397   1_554  S
O609        H617   0.965       .  S
O612        H616   0.965       .  S
O613        H618   0.965       .  S
O631       Zr643   2.379       .  S
O631        C633   1.276       .  A
O632       Zr669   2.510       .  S
O632        C633   1.300       .  A
O634       Zr646   2.505       .  S
O634        C636   1.300       .  A
O635       Zr670   2.358       .  S
O635        C636   1.272       .  A
C636       C1045   1.495       .  S
O637       Zr646   2.478       .  S
O637        C639   1.294       .  A
O638       Zr669   2.427       .  S
O638        C639   1.291       .  A
C639       C1685   1.486       .  S
O640       Zr643   2.409       .  S
O640        C642   1.282       .  A
O641       Zr670   2.443       .  S
O641        C642   1.288       .  A
Zr643       O644   2.432       .  S
Zr643       O645   2.427       .  S
Zr643       O649   2.353       .  S
Zr643       O650   2.336       .  S
Zr643       O673   2.357       .  S
Zr643       O675   2.354       .  S
O644        H687   0.990       .  S
O645        H686   0.990       .  S
O645        H690   0.987       .  S
Zr646       O647   2.435       .  S
Zr646       O648   2.435       .  S
Zr646       O650   2.378       .  S
Zr646       O649   2.382       .  S
Zr646       O674   2.394       .  S
Zr646       O676   2.369       .  S
O647        H688   0.990       .  S
O647        H691   0.990       .  S
O648        H681   0.990       .  S
O649       Zr669   2.400       .  S
O650       Zr670   2.382       .  S
O650        H677   0.966       .  S
O651       Zr663   2.424       .  S
O651        C653   1.278       .  A
O652       Zr670   2.442   1_655  S
O652        C653   1.282       .  A
C653        C783   1.472       .  S
O654       Zr666   2.463       .  S
O654        C656   1.291       .  A
O655       Zr669   2.473   1_655  S
O655        C656   1.298       .  A
C656       C1461   1.496       .  S
O657       Zr666   2.496       .  S
O657        C659   1.297       .  A
O658       Zr670   2.364   1_655  S
O658        C659   1.278       .  A
C659        C821   1.491       .  S
O660       Zr663   2.394       .  S
O660        C662   1.271       .  A
O661       Zr669   2.489   1_655  S
O661        C662   1.294       .  A
C662        C718   1.470       .  S
Zr663       O664   2.425       .  S
Zr663       O665   2.427       .  S
Zr663       O671   2.361       .  S
Zr663       O672   2.370       .  S
Zr663       O675   2.369   1_655  S
Zr663       O673   2.353   1_655  S
O664        H684   0.989       .  S
O664        H689   0.988       .  S
O665        H685   0.990       .  S
Zr666       O667   2.434       .  S
Zr666       O668   2.435       .  S
Zr666       O672   2.391       .  S
Zr666       O671   2.377       .  S
Zr666       O676   2.363   1_655  S
Zr666       O674   2.384   1_655  S
O667        H683   0.990       .  S
O668        H682   0.990       .  S
O668        H692   0.990       .  S
Zr669       O672   2.390   1_455  S
Zr669       O674   2.421       .  S
Zr669       O675   2.383       .  S
Zr670       O671   2.379   1_455  S
Zr670       O673   2.349       .  S
Zr670       O676   2.392       .  S
O671        H679   0.966       .  S
O674        H678   0.966       .  S
O675        H680   0.964       .  S
O693       Zr705   2.500       .  S
O693        C695   1.299       .  A
O694       Zr731   2.379   1_545  S
O694        C695   1.281       .  A
C695       C1541   1.485       .  S
O696       Zr708   2.427       .  S
O696        C698   1.280       .  A
O697       Zr732   2.443   1_545  S
O697        C698   1.282       .  A
O699       Zr708   2.422       .  S
O699        C701   1.276       .  A
O700       Zr731   2.438   1_545  S
O700        C701   1.280       .  A
O702       Zr705   2.485       .  S
O702        C704   1.294       .  A
O703       Zr732   2.371   1_545  S
O703        C704   1.278       .  A
C704       C1285   1.485       .  S
Zr705       O706   2.434       .  S
Zr705       O707   2.435       .  S
Zr705       O711   2.382       .  S
Zr705       O712   2.387       .  S
Zr705       O735   2.371   1_545  S
Zr705       O737   2.364   1_545  S
O706        H749   0.990       .  S
O707        H748   0.990       .  S
O707        H752   0.990       .  S
Zr708       O709   2.414       .  S
Zr708       O710   2.426       .  S
Zr708       O712   2.370       .  S
Zr708       O711   2.366       .  S
Zr708       O736   2.373   1_545  S
Zr708       O738   2.357   1_545  S
O709        H750   0.989       .  S
O709        H753   0.986       .  S
O710        H743   0.990       .  S
O711       Zr731   2.377   1_545  S
O712       Zr732   2.386   1_545  S
O712        H739   0.966       .  S
O713       Zr725   2.476       .  S
O713        C715   1.295       .  A
O714       Zr732   2.350       .  S
O714        C715   1.271       .  A
C715       C1141   1.475       .  S
O716       Zr728   2.441       .  S
O716        C718   1.290       .  A
O717       Zr731   2.434       .  S
O717        C718   1.285       .  A
O719       Zr728   2.456       .  S
O719        C721   1.285       .  A
O720       Zr732   2.473       .  S
O720        C721   1.281       .  A
C721        C780   1.500       .  S
O722       Zr725   2.507       .  S
O722        C724   1.297       .  A
O723       Zr731   2.352       .  S
O723        C724   1.268       .  A
C724       C1477   1.493       .  S
Zr725       O726   2.434       .  S
Zr725       O727   2.434       .  S
Zr725       O733   2.394       .  S
Zr725       O734   2.370       .  S
Zr725       O737   2.373       .  S
Zr725       O735   2.380       .  S
O726        H746   0.990       .  S
O726        H751   0.990       .  S
O727        H747   0.990       .  S
Zr728       O729   2.428       .  S
Zr728       O730   2.413       .  S
Zr728       O734   2.357       .  S
Zr728       O733   2.350       .  S
Zr728       O738   2.362       .  S
Zr728       O736   2.362       .  S
O729        H745   0.990       .  S
O730        H744   0.990       .  S
O730        H754   0.986       .  S
Zr731       O734   2.378       .  S
Zr731       O736   2.373       .  S
Zr731       O737   2.407       .  S
Zr732       O733   2.397       .  S
Zr732       O735   2.402       .  S
Zr732       O738   2.363       .  S
O733        H741   0.966       .  S
O736        H740   0.966       .  S
O737        H742   0.964       .  S
O755       Zr767   2.433       .  S
O755        C757   1.285       .  A
O756       Zr793   2.485       .  S
O756        C757   1.301       .  A
C757       C1218   1.483       .  S
O758       Zr770   2.388       .  S
O758        C760   1.279       .  A
O759       Zr794   2.474   1_554  S
O759        C760   1.295       .  A
O761       Zr770   2.407       .  S
O761        C763   1.282       .  A
O762       Zr793   2.480       .  S
O762        C763   1.293       .  A
O764       Zr767   2.501       .  S
O764        C766   1.300       .  A
O765       Zr794   2.370   1_554  S
O765        C766   1.274       .  A
C766        C901   1.496       .  S
Zr767       O768   2.435       .  S
Zr767       O769   2.436       .  S
Zr767       O773   2.401       .  S
Zr767       O774   2.363       .  S
Zr767       O797   2.344   1_554  S
Zr767       O799   2.393   1_554  S
O768        H811   0.990       .  S
O769        H810   0.990       .  S
O769        H814   0.990       .  S
Zr770       O771   2.433       .  S
Zr770       O772   2.426       .  S
Zr770       O774   2.362       .  S
Zr770       O773   2.340       .  S
Zr770       O798   2.349       .  S
Zr770       O800   2.371       .  S
O771        H812   0.990       .  S
O771        H815   0.989       .  S
O772        H805   0.990       .  S
O773       Zr793   2.387       .  S
O774       Zr794   2.376   1_554  S
O774        H801   0.966       .  S
O775       Zr787   2.509       .  S
O775        C777   1.299       .  A
O776       Zr794   2.387       .  S
O776        C777   1.281       .  A
C777        C837   1.496       .  S
O778       Zr790   2.354       .  S
O778        C780   1.271       .  A
O779       Zr793   2.553   1_556  S
O779        C780   1.309       .  A
O781       Zr790   2.409       .  S
O781        C783   1.282       .  A
O782       Zr794   2.451       .  S
O782        C783   1.288       .  A
O784       Zr787   2.538       .  S
O784        C786   1.305       .  A
O785       Zr793   2.342   1_556  S
O785        C786   1.267       .  A
C786       C1157   1.507       .  S
Zr787       O788   2.434       .  S
Zr787       O789   2.434       .  S
Zr787       O795   2.402       .  S
Zr787       O796   2.385       .  S
Zr787       O799   2.369       .  S
Zr787       O797   2.381       .  S
O788        H808   0.990       .  S
O788        H813   0.990       .  S
O789        H809   0.990       .  S
Zr790       O791   2.418       .  S
Zr790       O792   2.437       .  S
Zr790       O796   2.372       .  S
Zr790       O795   2.342       .  S
Zr790       O800   2.338   1_556  S
Zr790       O798   2.362   1_556  S
O791        H807   0.989       .  S
O792        H806   0.990       .  S
O792        H816   0.990       .  S
Zr793       O796   2.385   1_554  S
Zr793       O798   2.356       .  S
Zr793       O799   2.428   1_554  S
Zr794       O795   2.380       .  S
Zr794       O797   2.403       .  S
Zr794       O800   2.345   1_556  S
O795        H803   0.966       .  S
O798        H802   0.966       .  S
O799        H804   0.965       .  S
C817        C818   1.410       .  A
C817        C822   1.410       .  A
C817        H824   1.084       .  S
C818        C819   1.408       .  A
C819        C820   1.392       .  A
C819        C826   1.508       .  S
C820        C821   1.411       .  A
C820        H825   1.081   1_655  S
C821        C822   1.412       .  A
C822        C823   1.505       .  S
C823        H827   1.111       .  S
C823        H828   1.110       .  S
C823        H829   1.110       .  S
C826        H830   1.106   1_655  S
C826        H831   1.103       .  S
C826        H832   1.110   1_655  S
C833        C834   1.413       .  A
C833        C838   1.419       .  A
C833        H840   1.084       .  S
C834        C835   1.410       .  A
C835        C836   1.390       .  A
C835        C842   1.496       .  S
C836        C837   1.405       .  A
C836        H841   1.081       .  S
C837        C838   1.413       .  A
C838        C839   1.503       .  S
C839        H843   1.111       .  S
C839        H844   1.110       .  S
C839        H845   1.110       .  S
C842        H846   1.089       .  S
C842        H847   1.108       .  S
C842        H848   1.111       .  S
C849        C850   1.410       .  A
C849        C854   1.394       .  A
C849        H856   1.066       .  S
C850        C851   1.421       .  A
C851        C852   1.411       .  A
C851        C858   1.498       .  S
C852        C853   1.400       .  A
C852        H857   1.084       .  S
C853        C854   1.404       .  A
C854        C855   1.504   1_655  S
C855        H859   1.111       .  S
C855        H860   1.110       .  S
C855        H861   1.104       .  S
C858        H862   1.108       .  S
C858        H863   1.107       .  S
C858        H864   1.111       .  S
C865        C866   1.383       .  A
C865        C870   1.387       .  A
C865        H872   1.076       .  S
C866        C867   1.419       .  A
C867        C868   1.416       .  A
C867        C874   1.507       .  S
C868        C869   1.409       .  A
C868        H873   1.084       .  S
C869        C870   1.440       .  A
C870        C871   1.517       .  S
C871        H875   1.111       .  S
C871        H876   1.108       .  S
C871        H877   1.108       .  S
C874        H878   1.109       .  S
C874        H879   1.109       .  S
C874        H880   1.110       .  S
C881        C882   1.416       .  A
C881        C886   1.409       .  A
C881        H888   1.071       .  S
C882        C883   1.411       .  A
C883        C884   1.408       .  A
C883        C890   1.510       .  S
C884        C885   1.405       .  A
C884        H889   1.084       .  S
C885        C886   1.409       .  A
C886        C887   1.505       .  S
C887        H891   1.111       .  S
C887        H892   1.110       .  S
C887        H893   1.110       .  S
C890        H894   1.111       .  S
C890        H895   1.100       .  S
C890        H896   1.112       .  S
C897        C898   1.397       .  A
C897        C902   1.402       .  A
C897        H904   1.085       .  S
C898        C899   1.421       .  A
C899        C900   1.405       .  A
C899        C906   1.507       .  S
C900        C901   1.403       .  A
C900        H905   1.084       .  S
C901        C902   1.430       .  A
C902        C903   1.512       .  S
C903        H907   1.111       .  S
C903        H908   1.110       .  S
C903        H909   1.108       .  S
C906        H910   1.111       .  S
C906        H911   1.107       .  S
C906        H912   1.109       .  S
C913        C914   1.389       .  A
C913        C918   1.403       .  A
C913        H920   1.078       .  S
C914        C915   1.399       .  A
C915        C916   1.406       .  A
C915        C922   1.505       .  S
C916        C917   1.417       .  A
C916        H921   1.070       .  S
C917        C918   1.424       .  A
C918        C919   1.490       .  S
C919        H923   1.111       .  S
C919        H924   1.091       .  S
C919        H925   1.108       .  S
C922        H926   1.110       .  S
C922        H927   1.110       .  S
C922        H928   1.109       .  S
C929        C930   1.409       .  A
C929        C934   1.387       .  A
C929        H936   1.084       .  S
C930        C931   1.412       .  A
C931        C932   1.421       .  A
C931        C938   1.502       .  S
C932        C933   1.419       .  A
C932        H937   1.080       .  S
C933        C934   1.411       .  A
C934        C935   1.496       .  S
C935        H939   1.111       .  S
C935        H940   1.106       .  S
C935        H941   1.108       .  S
C938        H942   1.110       .  S
C938        H943   1.110       .  S
C938        H944   1.111       .  S
C945        C946   1.410       .  A
C945        C950   1.428   1_556  A
C945        H952   1.083       .  S
C946        C947   1.418       .  A
C947        C948   1.394   1_556  A
C947        C954   1.503       .  S
C948        C949   1.395       .  A
C948        H953   1.070       .  S
C949        C950   1.429       .  A
C950        C951   1.496       .  S
C951        H955   1.110       .  S
C951        H956   1.110       .  S
C951        H957   1.098       .  S
C954        H958   1.097       .  S
C954        H959   1.109       .  S
C954        H960   1.110       .  S
C961        C962   1.410       .  A
C961        C966   1.406       .  A
C961        H968   1.084       .  S
C962        C963   1.418       .  A
C963        C964   1.384       .  A
C963        C970   1.508       .  S
C964        C965   1.402       .  A
C964        H969   1.085       .  S
C965        C966   1.407       .  A
C966        C967   1.504       .  S
C967        H971   1.111       .  S
C967        H972   1.110       .  S
C967        H973   1.110       .  S
C970        H974   1.107       .  S
C970        H975   1.100       .  S
C970        H976   1.109       .  S
C977        C978   1.412       .  A
C977        C982   1.419       .  A
C977        H984   1.084       .  S
C978        C979   1.405       .  A
C979        C980   1.393       .  A
C979        C986   1.504       .  S
C980        C981   1.413       .  A
C980        H985   1.084       .  S
C981        C982   1.417       .  A
C982        C983   1.503       .  S
C983        H987   1.111       .  S
C983        H988   1.110       .  S
C983        H989   1.110       .  S
C986        H990   1.105       .  S
C986        H991   1.102       .  S
C986        H992   1.108       .  S
C993        C994   1.401       .  A
C993        C998   1.417       .  A
C993       H1000   1.083       .  S
C994        C995   1.396       .  A
C995        C996   1.393       .  A
C995       C1002   1.495       .  S
C996        C997   1.408       .  A
C996       H1001   1.059       .  S
C997        C998   1.429       .  A
C998        C999   1.503       .  S
C999       H1003   1.110       .  S
C999       H1004   1.109       .  S
C999       H1005   1.107       .  S
C1002      H1006   1.110       .  S
C1002      H1007   1.105       .  S
C1002      H1008   1.109       .  S
C1009      C1010   1.408       .  A
C1009      C1014   1.412       .  A
C1009      H1016   1.080       .  S
C1010      C1011   1.409       .  A
C1011      C1012   1.395       .  A
C1011      C1018   1.509       .  S
C1012      C1013   1.412       .  A
C1012      H1017   1.084       .  S
C1013      C1014   1.412       .  A
C1014      C1015   1.505       .  S
C1015      H1019   1.111       .  S
C1015      H1020   1.110       .  S
C1015      H1021   1.110       .  S
C1018      H1022   1.108       .  S
C1018      H1023   1.104       .  S
C1018      H1024   1.111       .  S
C1025      C1026   1.391       .  A
C1025      C1030   1.408       .  A
C1025      H1032   1.084       .  S
C1026      C1027   1.417       .  A
C1027      C1028   1.424       .  A
C1027      C1034   1.504       .  S
C1028      C1029   1.420   1_455  A
C1028      H1033   1.064   1_455  S
C1029      C1030   1.434   1_655  A
C1030      C1031   1.479   1_455  S
C1031      H1035   1.111       .  S
C1031      H1036   1.085       .  S
C1031      H1037   1.110       .  S
C1034      H1038   1.109       .  S
C1034      H1039   1.110       .  S
C1034      H1040   1.111       .  S
C1041      C1042   1.393       .  A
C1041      C1046   1.392       .  A
C1041      H1048   1.083       .  S
C1042      C1043   1.422       .  A
C1043      C1044   1.410       .  A
C1043      C1050   1.508       .  S
C1044      C1045   1.406       .  A
C1044      H1049   1.084       .  S
C1045      C1046   1.431       .  A
C1046      C1047   1.516       .  S
C1047      H1051   1.111       .  S
C1047      H1052   1.107       .  S
C1047      H1053   1.111       .  S
C1050      H1054   1.109       .  S
C1050      H1055   1.107       .  S
C1050      H1056   1.110       .  S
C1057      C1058   1.404       .  A
C1057      C1062   1.420       .  A
C1057      H1064   1.083       .  S
C1058      C1059   1.409       .  A
C1059      C1060   1.384       .  A
C1059      C1066   1.484       .  S
C1060      C1061   1.389       .  A
C1060      H1065   1.080       .  S
C1061      C1062   1.426       .  A
C1062      C1063   1.501       .  S
C1063      H1067   1.108       .  S
C1063      H1068   1.108       .  S
C1063      H1069   1.110       .  S
C1066      H1070   1.107       .  S
C1066      H1071   1.108   1_556  S
C1066      H1072   1.111   1_556  S
C1073      C1074   1.405       .  A
C1073      C1078   1.392       .  A
C1073      H1080   1.086       .  S
C1074      C1075   1.411       .  A
C1075      C1076   1.413       .  A
C1075      C1082   1.504       .  S
C1076      C1077   1.413       .  A
C1076      H1081   1.084       .  S
C1077      C1078   1.419       .  A
C1078      C1079   1.509       .  S
C1079      H1083   1.110       .  S
C1079      H1084   1.111       .  S
C1079      H1085   1.099       .  S
C1082      H1086   1.109       .  S
C1082      H1087   1.110       .  S
C1082      H1088   1.111       .  S
C1089      C1090   1.402       .  A
C1089      C1094   1.388       .  A
C1089      H1096   1.070       .  S
C1090      C1091   1.429       .  A
C1091      C1092   1.414       .  A
C1091      C1098   1.505       .  S
C1092      C1093   1.400       .  A
C1092      H1097   1.084       .  S
C1093      C1094   1.402       .  A
C1094      C1095   1.495       .  S
C1095      H1099   1.111   1_556  S
C1095      H1100   1.110       .  S
C1095      H1101   1.091   1_556  S
C1098      H1102   1.110       .  S
C1098      H1103   1.108       .  S
C1098      H1104   1.109       .  S
C1105      C1106   1.413       .  A
C1105      C1110   1.430   1_556  A
C1105      H1112   1.083       .  S
C1106      C1107   1.423       .  A
C1107      C1108   1.410   1_556  A
C1107      C1114   1.500       .  S
C1108      C1109   1.402       .  A
C1108      H1113   1.084       .  S
C1109      C1110   1.427       .  A
C1110      C1111   1.502       .  S
C1111      H1115   1.111       .  S
C1111      H1116   1.102       .  S
C1111      H1117   1.103       .  S
C1114      H1118   1.091       .  S
C1114      H1119   1.107       .  S
C1114      H1120   1.111       .  S
C1121      C1122   1.415   1_455  A
C1121      C1126   1.424       .  A
C1121      H1128   1.083   1_455  S
C1122      C1123   1.432   1_655  A
C1123      C1124   1.399       .  A
C1123      C1130   1.500   1_455  S
C1124      C1125   1.400       .  A
C1124      H1129   1.074       .  S
C1125      C1126   1.424       .  A
C1126      C1127   1.492       .  S
C1127      H1131   1.111       .  S
C1127      H1132   1.103       .  S
C1127      H1133   1.109       .  S
C1130      H1134   1.111   1_655  S
C1130      H1135   1.078       .  S
C1130      H1136   1.109   1_655  S
C1137      C1138   1.387       .  A
C1137      C1142   1.381       .  A
C1137      H1144   1.084       .  S
C1138      C1139   1.414       .  A
C1139      C1140   1.404       .  A
C1139      C1146   1.505       .  S
C1140      C1141   1.404       .  A
C1140      H1145   1.084       .  S
C1141      C1142   1.427       .  A
C1142      C1143   1.515       .  S
C1143      H1147   1.111       .  S
C1143      H1148   1.107       .  S
C1143      H1149   1.109       .  S
C1146      H1150   1.110       .  S
C1146      H1151   1.108       .  S
C1146      H1152   1.110       .  S
C1153      C1154   1.384       .  A
C1153      C1158   1.390       .  A
C1153      H1160   1.085       .  S
C1154      C1155   1.416       .  A
C1155      C1156   1.418       .  A
C1155      C1162   1.503       .  S
C1156      C1157   1.408       .  A
C1156      H1161   1.083       .  S
C1157      C1158   1.439       .  A
C1158      C1159   1.511       .  S
C1159      H1163   1.108       .  S
C1159      H1164   1.109       .  S
C1159      H1165   1.108   1_556  S
C1162      H1166   1.106       .  S
C1162      H1167   1.111       .  S
C1162      H1168   1.110       .  S
C1169      C1170   1.381       .  A
C1169      C1174   1.383       .  A
C1169      H1176   1.079       .  S
C1170      C1171   1.412       .  A
C1171      C1172   1.412       .  A
C1171      C1178   1.503       .  S
C1172      C1173   1.407       .  A
C1172      H1177   1.083       .  S
C1173      C1174   1.434       .  A
C1174      C1175   1.515       .  S
C1175      H1179   1.111       .  S
C1175      H1180   1.110       .  S
C1175      H1181   1.094       .  S
C1178      H1182   1.109       .  S
C1178      H1183   1.110       .  S
C1178      H1184   1.110       .  S
C1185      C1186   1.412       .  A
C1185      C1190   1.414       .  A
C1185      H1192   1.084       .  S
C1186      C1187   1.408       .  A
C1187      C1188   1.386       .  A
C1187      C1194   1.504       .  S
C1188      C1189   1.406       .  A
C1188      H1193   1.086       .  S
C1189      C1190   1.412       .  A
C1190      C1191   1.503       .  S
C1191      H1195   1.111       .  S
C1191      H1196   1.110       .  S
C1191      H1197   1.111       .  S
C1194      H1198   1.107       .  S
C1194      H1199   1.093       .  S
C1194      H1200   1.110       .  S
C1201      C1202   1.405       .  A
C1201      C1206   1.390       .  A
C1201      H1208   1.086       .  S
C1202      C1203   1.410       .  A
C1203      C1204   1.419       .  A
C1203      C1210   1.505       .  S
C1204      C1205   1.417       .  A
C1204      H1209   1.083       .  S
C1205      C1206   1.421       .  A
C1206      C1207   1.509       .  S
C1207      H1211   1.103       .  S
C1207      H1212   1.107       .  S
C1207      H1213   1.109       .  S
C1210      H1214   1.107       .  S
C1210      H1215   1.110       .  S
C1210      H1216   1.111       .  S
C1217      C1218   1.408       .  A
C1217      C1222   1.420       .  A
C1217      H1224   1.083       .  S
C1218      C1219   1.405       .  A
C1219      C1220   1.410       .  A
C1219      C1226   1.505       .  S
C1220      C1221   1.413       .  A
C1220      H1225   1.073       .  S
C1221      C1222   1.407       .  A
C1222      C1223   1.506       .  S
C1223      H1227   1.111       .  S
C1223      H1228   1.103       .  S
C1223      H1229   1.110       .  S
C1226      H1230   1.110       .  S
C1226      H1231   1.110       .  S
C1226      H1232   1.109       .  S
C1233      C1234   1.408       .  A
C1233      C1238   1.424       .  A
C1233      H1240   1.084       .  S
C1234      C1235   1.431       .  A
C1235      C1236   1.407       .  A
C1235      C1242   1.506       .  S
C1236      C1237   1.397       .  A
C1236      H1241   1.085       .  S
C1237      C1238   1.429       .  A
C1238      C1239   1.505       .  S
C1239      H1243   1.111       .  S
C1239      H1244   1.108       .  S
C1239      H1245   1.110       .  S
C1242      H1246   1.107       .  S
C1242      H1247   1.110       .  S
C1242      H1248   1.111       .  S
C1249      C1250   1.392       .  A
C1249      C1254   1.393       .  A
C1249      H1256   1.087       .  S
C1250      C1251   1.411       .  A
C1251      C1252   1.414       .  A
C1251      C1258   1.504       .  S
C1252      C1253   1.415       .  A
C1252      H1257   1.083       .  S
C1253      C1254   1.418       .  A
C1254      C1255   1.492       .  S
C1255      H1259   1.112       .  S
C1255      H1260   1.098       .  S
C1255      H1261   1.106   1_554  S
C1258      H1262   1.110       .  S
C1258      H1263   1.110       .  S
C1258      H1264   1.111       .  S
C1265      C1266   1.407       .  A
C1265      C1270   1.410   1_554  A
C1265      H1272   1.082       .  S
C1266      C1267   1.441       .  A
C1267      C1268   1.415   1_554  A
C1267      C1274   1.489       .  S
C1268      C1269   1.394       .  A
C1268      H1273   1.084       .  S
C1269      C1270   1.428       .  A
C1270      C1271   1.494       .  S
C1271      H1275   1.110       .  S
C1271      H1276   1.110       .  S
C1271      H1277   1.087       .  S
C1274      H1278   1.096       .  S
C1274      H1279   1.103       .  S
C1274      H1280   1.111   1_554  S
C1281      C1282   1.412       .  A
C1281      C1286   1.413       .  A
C1281      H1288   1.081       .  S
C1282      C1283   1.414       .  A
C1283      C1284   1.386       .  A
C1283      C1290   1.502       .  S
C1284      C1285   1.403       .  A
C1284      H1289   1.082   1_545  S
C1285      C1286   1.410       .  A
C1286      C1287   1.503       .  S
C1287      H1291   1.111       .  S
C1287      H1292   1.110       .  S
C1287      H1293   1.110       .  S
C1290      H1294   1.106   1_545  S
C1290      H1295   1.093       .  S
C1290      H1296   1.109       .  S
C1297      C1298   1.390       .  A
C1297      C1302   1.392       .  A
C1297      H1304   1.081       .  S
C1298      C1299   1.425       .  A
C1299      C1300   1.420       .  A
C1299      C1306   1.509       .  S
C1300      C1301   1.406       .  A
C1300      H1305   1.083       .  S
C1301      C1302   1.430       .  A
C1302      C1303   1.513       .  S
C1303      H1307   1.107       .  S
C1303      H1308   1.111       .  S
C1303      H1309   1.108       .  S
C1306      H1310   1.105       .  S
C1306      H1311   1.106       .  S
C1306      H1312   1.110       .  S
C1313      C1314   1.399       .  A
C1313      C1318   1.413       .  A
C1313      H1320   1.084       .  S
C1314      C1315   1.397       .  A
C1315      C1316   1.393       .  A
C1315      C1322   1.502   1_545  S
C1316      C1317   1.411       .  A
C1316      H1321   1.069       .  S
C1317      C1318   1.431       .  A
C1318      C1319   1.503       .  S
C1319      H1323   1.110       .  S
C1319      H1324   1.108       .  S
C1319      H1325   1.108       .  S
C1322      H1326   1.110       .  S
C1322      H1327   1.099       .  S
C1322      H1328   1.110       .  S
C1329      C1330   1.401       .  A
C1329      C1334   1.394       .  A
C1329      H1336   1.083       .  S
C1330      C1331   1.421       .  A
C1331      C1332   1.407       .  A
C1331      C1338   1.502       .  S
C1332      C1333   1.400       .  A
C1332      H1337   1.084       .  S
C1333      C1334   1.421       .  A
C1334      C1335   1.511       .  S
C1335      H1339   1.111       .  S
C1335      H1340   1.110       .  S
C1335      H1341   1.108       .  S
C1338      H1342   1.107       .  S
C1338      H1343   1.099       .  S
C1338      H1344   1.111       .  S
C1345      C1346   1.416   1_565  A
C1345      C1350   1.430       .  A
C1345      H1352   1.083   1_565  S
C1346      C1347   1.415   1_545  A
C1347      C1348   1.394       .  A
C1347      C1354   1.500   1_565  S
C1348      C1349   1.392       .  A
C1348      H1353   1.068       .  S
C1349      C1350   1.421       .  A
C1350      C1351   1.499       .  S
C1351      H1355   1.110       .  S
C1351      H1356   1.107       .  S
C1351      H1357   1.110       .  S
C1354      H1358   1.107       .  S
C1354      H1359   1.102       .  S
C1354      H1360   1.111   1_545  S
C1361      C1362   1.407       .  A
C1361      C1366   1.398       .  A
C1361      H1368   1.074       .  S
C1362      C1363   1.426       .  A
C1363      C1364   1.412       .  A
C1363      C1370   1.502       .  S
C1364      C1365   1.399       .  A
C1364      H1369   1.084       .  S
C1365      C1366   1.405       .  A
C1366      C1367   1.496   1_545  S
C1367      H1371   1.111       .  S
C1367      H1372   1.110       .  S
C1367      H1373   1.099       .  S
C1370      H1374   1.109       .  S
C1370      H1375   1.108       .  S
C1370      H1376   1.110       .  S
C1377      C1378   1.409       .  A
C1377      C1382   1.410       .  A
C1377      H1384   1.083       .  S
C1378      C1379   1.402       .  A
C1379      C1380   1.391       .  A
C1379      C1386   1.504       .  S
C1380      C1381   1.415       .  A
C1380      H1385   1.084       .  S
C1381      C1382   1.412       .  A
C1382      C1383   1.505       .  S
C1383      H1387   1.111       .  S
C1383      H1388   1.110       .  S
C1383      H1389   1.110       .  S
C1386      H1390   1.107       .  S
C1386      H1391   1.110       .  S
C1386      H1392   1.111       .  S
C1393      C1394   1.399       .  A
C1393      C1398   1.403       .  A
C1393      H1400   1.084       .  S
C1394      C1395   1.408       .  A
C1395      C1396   1.405       .  A
C1395      C1402   1.506       .  S
C1396      C1397   1.410       .  A
C1396      H1401   1.080       .  S
C1397      C1398   1.421       .  A
C1398      C1399   1.506       .  S
C1399      H1403   1.110       .  S
C1399      H1404   1.105       .  S
C1399      H1405   1.108   1_545  S
C1402      H1406   1.110       .  S
C1402      H1407   1.108       .  S
C1402      H1408   1.111       .  S
C1409      C1410   1.400       .  A
C1409      C1414   1.388       .  A
C1409      H1416   1.067       .  S
C1410      C1411   1.427       .  A
C1411      C1412   1.417       .  A
C1411      C1418   1.506       .  S
C1412      C1413   1.404       .  A
C1412      H1417   1.084       .  S
C1413      C1414   1.413       .  A
C1414      C1415   1.510       .  S
C1415      H1419   1.108       .  S
C1415      H1420   1.110       .  S
C1415      H1421   1.108       .  S
C1418      H1422   1.104       .  S
C1418      H1423   1.110       .  S
C1418      H1424   1.110       .  S
C1425      C1426   1.409   1_565  A
C1425      C1430   1.415       .  A
C1425      H1432   1.073   1_565  S
C1426      C1427   1.419   1_545  A
C1427      C1428   1.409       .  A
C1427      C1434   1.497       .  S
C1428      C1429   1.417       .  A
C1428      H1433   1.058       .  S
C1429      C1430   1.432       .  A
C1430      C1431   1.494       .  S
C1431      H1435   1.111       .  S
C1431      H1436   1.100       .  S
C1431      H1437   1.107       .  S
C1434      H1438   1.103       .  S
C1434      H1439   1.112       .  S
C1434      H1440   1.088   1_565  S
C1441      C1442   1.408       .  A
C1441      C1446   1.420   1_554  A
C1441      H1448   1.078       .  S
C1442      C1443   1.414       .  A
C1443      C1444   1.405   1_554  A
C1443      C1450   1.507       .  S
C1444      C1445   1.409       .  A
C1444      H1449   1.073       .  S
C1445      C1446   1.429       .  A
C1446      C1447   1.498       .  S
C1447      H1451   1.111       .  S
C1447      H1452   1.092       .  S
C1447      H1453   1.111       .  S
C1450      H1454   1.100       .  S
C1450      H1455   1.110       .  S
C1450      H1456   1.111       .  S
C1457      C1458   1.411       .  A
C1457      C1462   1.415       .  A
C1457      H1464   1.064       .  S
C1458      C1459   1.426       .  A
C1459      C1460   1.417       .  A
C1459      C1466   1.502       .  S
C1460      C1461   1.400       .  A
C1460      H1465   1.083       .  S
C1461      C1462   1.404       .  A
C1462      C1463   1.506       .  S
C1463      H1467   1.111       .  S
C1463      H1468   1.110       .  S
C1463      H1469   1.107       .  S
C1466      H1470   1.110       .  S
C1466      H1471   1.110       .  S
C1466      H1472   1.104       .  S
C1473      C1474   1.412       .  A
C1473      C1478   1.410       .  A
C1473      H1480   1.083       .  S
C1474      C1475   1.413       .  A
C1475      C1476   1.393       .  A
C1475      C1482   1.513       .  S
C1476      C1477   1.415       .  A
C1476      H1481   1.084       .  S
C1477      C1478   1.414       .  A
C1478      C1479   1.505       .  S
C1479      H1483   1.111       .  S
C1479      H1484   1.110       .  S
C1479      H1485   1.110       .  S
C1482      H1486   1.110       .  S
C1482      H1487   1.103       .  S
C1482      H1488   1.111       .  S
C1489      C1490   1.412       .  A
C1489      C1494   1.422       .  A
C1489      H1496   1.083       .  S
C1490      C1491   1.406       .  A
C1491      C1492   1.403       .  A
C1491      C1498   1.511       .  S
C1492      C1493   1.420       .  A
C1492      H1497   1.083       .  S
C1493      C1494   1.419       .  A
C1494      C1495   1.503       .  S
C1495      H1499   1.111       .  S
C1495      H1500   1.110       .  S
C1495      H1501   1.110       .  S
C1498      H1502   1.105       .  S
C1498      H1503   1.108       .  S
C1498      H1504   1.105       .  S
C1505      C1506   1.389       .  A
C1505      C1510   1.390       .  A
C1505      H1512   1.076       .  S
C1506      C1507   1.412       .  A
C1507      C1508   1.416       .  A
C1507      C1514   1.504       .  S
C1508      C1509   1.411       .  A
C1508      H1513   1.083       .  S
C1509      C1510   1.433       .  A
C1510      C1511   1.518       .  S
C1511      H1515   1.110   1_655  S
C1511      H1516   1.110       .  S
C1511      H1517   1.101   1_655  S
C1514      H1518   1.109       .  S
C1514      H1519   1.110       .  S
C1514      H1520   1.110       .  S
C1521      C1522   1.381       .  A
C1521      C1526   1.393       .  A
C1521      H1528   1.087       .  S
C1522      C1523   1.400       .  A
C1523      C1524   1.410       .  A
C1523      C1530   1.503       .  S
C1524      C1525   1.421       .  A
C1524      H1529   1.079       .  S
C1525      C1526   1.433       .  A
C1526      C1527   1.483       .  S
C1527      H1531   1.112   1_655  S
C1527      H1532   1.098       .  S
C1527      H1533   1.098   1_655  S
C1530      H1534   1.110       .  S
C1530      H1535   1.111       .  S
C1530      H1536   1.111       .  S
C1537      C1538   1.408       .  A
C1537      C1542   1.407       .  A
C1537      H1544   1.082       .  S
C1538      C1539   1.408       .  A
C1539      C1540   1.399       .  A
C1539      C1546   1.501       .  S
C1540      C1541   1.408       .  A
C1540      H1545   1.084       .  S
C1541      C1542   1.413       .  A
C1542      C1543   1.503       .  S
C1543      H1547   1.111       .  S
C1543      H1548   1.109       .  S
C1543      H1549   1.110       .  S
C1546      H1550   1.104       .  S
C1546      H1551   1.102       .  S
C1546      H1552   1.110       .  S
C1553      C1554   1.408       .  A
C1553      C1558   1.408       .  A
C1553      H1560   1.084       .  S
C1554      C1555   1.433       .  A
C1555      C1556   1.392       .  A
C1555      C1562   1.514       .  S
C1556      C1557   1.392       .  A
C1556      H1561   1.085       .  S
C1557      C1558   1.416       .  A
C1558      C1559   1.507       .  S
C1559      H1563   1.109       .  S
C1559      H1564   1.110       .  S
C1559      H1565   1.109       .  S
C1562      H1566   1.109   1_655  S
C1562      H1567   1.110       .  S
C1562      H1568   1.111       .  S
C1569      C1570   1.384       .  A
C1569      C1574   1.378       .  A
C1569      H1576   1.083       .  S
C1570      C1571   1.423       .  A
C1571      C1572   1.412       .  A
C1571      C1578   1.502       .  S
C1572      C1573   1.401       .  A
C1572      H1577   1.084       .  S
C1573      C1574   1.408       .  A
C1574      C1575   1.481   1_545  S
C1575      H1579   1.110       .  S
C1575      H1580   1.109       .  S
C1575      H1581   1.105       .  S
C1578      H1582   1.107       .  S
C1578      H1583   1.109       .  S
C1578      H1584   1.110       .  S
C1585      C1586   1.396       .  A
C1585      C1590   1.404   1_545  A
C1585      H1592   1.073       .  S
C1586      C1587   1.430   1_545  A
C1587      C1588   1.440       .  A
C1587      C1594   1.504   1_565  S
C1588      C1589   1.419       .  A
C1588      H1593   1.083       .  S
C1589      C1590   1.426       .  A
C1590      C1591   1.496       .  S
C1591      H1595   1.110       .  S
C1591      H1596   1.109       .  S
C1591      H1597   1.084       .  S
C1594      H1598   1.104       .  S
C1594      H1599   1.107       .  S
C1594      H1600   1.110   1_545  S
C1601      C1602   1.401       .  A
C1601      C1606   1.380       .  A
C1601      H1608   1.086       .  S
C1602      C1603   1.412       .  A
C1603      C1604   1.411       .  A
C1603      C1610   1.504       .  S
C1604      C1605   1.410       .  A
C1604      H1609   1.084       .  S
C1605      C1606   1.414       .  A
C1606      C1607   1.503       .  S
C1607      H1611   1.104       .  S
C1607      H1612   1.109       .  S
C1607      H1613   1.093       .  S
C1610      H1614   1.110       .  S
C1610      H1615   1.110       .  S
C1610      H1616   1.111       .  S
C1617      C1618   1.384       .  A
C1617      C1622   1.393       .  A
C1617      H1624   1.074       .  S
C1618      C1619   1.419       .  A
C1619      C1620   1.423       .  A
C1619      C1626   1.504       .  S
C1620      C1621   1.410       .  A
C1620      H1625   1.083       .  S
C1621      C1622   1.431       .  A
C1622      C1623   1.511       .  S
C1623      H1627   1.099       .  S
C1623      H1628   1.096       .  S
C1623      H1629   1.109       .  S
C1626      H1630   1.110       .  S
C1626      H1631   1.107       .  S
C1626      H1632   1.110       .  S
C1633      C1634   1.413       .  A
C1633      C1638   1.381       .  A
C1633      H1640   1.084       .  S
C1634      C1635   1.414       .  A
C1635      C1636   1.412       .  A
C1635      C1642   1.504       .  S
C1636      C1637   1.409       .  A
C1636      H1641   1.084       .  S
C1637      C1638   1.400       .  A
C1638      C1639   1.501       .  S
C1639      H1643   1.109       .  S
C1639      H1644   1.097       .  S
C1639      H1645   1.108       .  S
C1642      H1646   1.110       .  S
C1642      H1647   1.110       .  S
C1642      H1648   1.111       .  S
C1649      C1650   1.404       .  A
C1649      C1654   1.389       .  A
C1649      H1656   1.085   1_545  S
C1650      C1651   1.409       .  A
C1651      C1652   1.409       .  A
C1651      C1658   1.504       .  S
C1652      C1653   1.412       .  A
C1652      H1657   1.084       .  S
C1653      C1654   1.411       .  A
C1654      C1655   1.501   1_545  S
C1655      H1659   1.107       .  S
C1655      H1660   1.101   1_565  S
C1655      H1661   1.104       .  S
C1658      H1662   1.111       .  S
C1658      H1663   1.110       .  S
C1658      H1664   1.111       .  S
C1665      C1666   1.397       .  A
C1665      C1670   1.399   1_655  A
C1665      H1672   1.073       .  S
C1666      C1667   1.434       .  A
C1667      C1668   1.423   1_655  A
C1667      C1674   1.501       .  S
C1668      C1669   1.407       .  A
C1668      H1673   1.084       .  S
C1669      C1670   1.422       .  A
C1670      C1671   1.499       .  S
C1671      H1675   1.111       .  S
C1671      H1676   1.109       .  S
C1671      H1677   1.097       .  S
C1674      H1678   1.103       .  S
C1674      H1679   1.110       .  S
C1674      H1680   1.111   1_655  S
C1681      C1682   1.395       .  A
C1681      C1686   1.381       .  A
C1681      H1688   1.069       .  S
C1682      C1683   1.433       .  A
C1683      C1684   1.422       .  A
C1683      C1690   1.504       .  S
C1684      C1685   1.404       .  A
C1684      H1689   1.083       .  S
C1685      C1686   1.397       .  A
C1686      C1687   1.481       .  S
C1687      H1691   1.108       .  S
C1687      H1692   1.102       .  S
C1687      H1693   1.109       .  S
C1690      H1694   1.109       .  S
C1690      H1695   1.109       .  S
C1690      H1696   1.110       .  S
C1697      C1698   1.414       .  A
C1697      C1702   1.411       .  A
C1697      H1704   1.084       .  S
C1698      C1699   1.427       .  A
C1699      C1700   1.392       .  A
C1699      C1706   1.511       .  S
C1700      C1701   1.399       .  A
C1700      H1705   1.086       .  S
C1701      C1702   1.408       .  A
C1702      C1703   1.504       .  S
C1703      H1707   1.111       .  S
C1703      H1708   1.110       .  S
C1703      H1709   1.111       .  S
C1706      H1710   1.109       .  S
C1706      H1711   1.099       .  S
C1706      H1712   1.110       .  S
C1713      C1714   1.409       .  A
C1713      C1718   1.385       .  A
C1713      H1720   1.069       .  S
C1714      C1715   1.429       .  A
C1715      C1716   1.415       .  A
C1715      C1722   1.504       .  S
C1716      C1717   1.400       .  A
C1716      H1721   1.084       .  S
C1717      C1718   1.396       .  A
C1718      C1719   1.504       .  S
C1719      H1723   1.110       .  S
C1719      H1724   1.110       .  S
C1719      H1725   1.098       .  S
C1722      H1726   1.110       .  S
C1722      H1727   1.108       .  S
C1722      H1728   1.108       .  S
C1729      C1730   1.416       .  A
C1729      C1734   1.423       .  A
C1729      H1736   1.083       .  S
C1730      C1731   1.414       .  A
C1731      C1732   1.399       .  A
C1731      C1738   1.508       .  S
C1732      C1733   1.414       .  A
C1732      H1737   1.084       .  S
C1733      C1734   1.415       .  A
C1734      C1735   1.503       .  S
C1735      H1739   1.111       .  S
C1735      H1740   1.110       .  S
C1735      H1741   1.110       .  S
C1738      H1742   1.106       .  S
C1738      H1743   1.098       .  S
C1738      H1744   1.111       .  S
C1745      C1746   1.423       .  A
C1745      C1750   1.439       .  A
C1745      H1752   1.080       .  S
C1746      C1747   1.420       .  A
C1747      C1748   1.387       .  A
C1747      C1754   1.496       .  S
C1748      C1749   1.386   1_565  A
C1748      H1753   1.058   1_565  S
C1749      C1750   1.423   1_545  A
C1750      C1751   1.503   1_565  S
C1751      H1755   1.110   1_545  S
C1751      H1756   1.110       .  S
C1751      H1757   1.104       .  S
C1754      H1758   1.107       .  S
C1754      H1759   1.087       .  S
C1754      H1760   1.109       .  S
C1761      C1762   1.423       .  A
C1761      C1766   1.434   1_455  A
C1761      H1768   1.083       .  S
C1762      C1763   1.421       .  A
C1763      C1764   1.398   1_455  A
C1763      C1770   1.494       .  S
C1764      C1765   1.392       .  A
C1764      H1769   1.071       .  S
C1765      C1766   1.429       .  A
C1766      C1767   1.503       .  S
C1767      H1771   1.110       .  S
C1767      H1772   1.109       .  S
C1767      H1773   1.110       .  S
C1770      H1774   1.110       .  S
C1770      H1775   1.094       .  S
C1770      H1776   1.103       .  S
