geometry optimzed in LAMMPS
_audit_creation_date              2020-12-01 
_audit_creation_method            'lammps2cif' 
_symmetry_space_group_name_H-M    'P1' 
_symmetry_Int_Tables_number       1 
_symmetry_cell_setting            triclinic 
loop_ 
_symmetry_equiv_pos_as_xyz 
  x,y,z 
_cell_length_a                    40.0627576 
_cell_length_b                    40.062894144343986 
_cell_length_c                    40.06502641459634 
_cell_angle_alpha                 89.95430425471866 
_cell_angle_beta                  89.97846059028367 
_cell_angle_gamma                 89.95874695478912 
loop_ 
_atom_site_label 
_atom_site_type_symbol 
_atom_site_fract_x 
_atom_site_fract_y 
_atom_site_fract_z 
_atom_site_charge 
N1          N  0.79092088  0.27417484  0.55399787    -0.24600
N2          N  0.82109479  0.27853228  0.56691012    -0.32400
C3          C  0.81992650  0.27825117  0.60049358     0.03800
C4          C  0.78756951  0.27353628  0.61084836     0.09800
C5          C  0.76956971  0.27092622  0.58057157    -0.03300
H6          H  0.84136910  0.28204145  0.61640543     0.10500
H7          H  0.74290186  0.26733336  0.57824997     0.11700
Cu8        Cu  0.86400831  0.28900998  0.54083246     0.44200
Cu9        Cu  0.78361570  0.27441227  0.49893784     0.42000
Cu10       Cu  0.85936639  0.30292086  0.45546751     0.43900
N11         N  0.90196218  0.31226923  0.51540396    -0.32000
N12         N  0.89996659  0.31793191  0.48305494    -0.26200
C13         C  0.92378364  0.33976869  0.47422694    -0.02300
C14         C  0.94149751  0.34822627  0.50250954     0.09900
C15         C  0.92701405  0.33047423  0.52823432     0.03700
H16         H  0.92532162  0.35170526  0.45004970     0.11300
H17         H  0.93144869  0.33379678  0.55466259     0.10400
N18         N  0.81702396  0.28868093  0.43012156    -0.33400
N19         N  0.78881893  0.27791018  0.44374500    -0.25600
C20         C  0.76779413  0.27074213  0.41771643    -0.00800
C21         C  0.78389335  0.27757268  0.38702116     0.07800
C22         C  0.81486246  0.28881387  0.39657180     0.05900
H23         H  0.74275406  0.26115756  0.42068671     0.11000
H24         H  0.83485351  0.29643846  0.38012117     0.09800
N25         N  0.54925724  0.80250636  0.27056797    -0.24600
N26         N  0.56310866  0.83215859  0.27572789    -0.32400
C27         C  0.59668384  0.82980276  0.27538896     0.03800
C28         C  0.60596596  0.79716901  0.26989099     0.09800
C29         C  0.57509034  0.78035288  0.26682895    -0.03300
H30         H  0.61336930  0.85064637  0.27951049     0.10500
H31         H  0.57185265  0.75391949  0.26246076     0.11700
Cu32       Cu  0.53800227  0.87589518  0.28666088     0.44200
Cu33       Cu  0.49405226  0.79637294  0.26995318     0.42000
Cu34       Cu  0.45093814  0.87382002  0.29262162     0.43900
N35         N  0.51122314  0.91458094  0.30771717    -0.32000
N36         N  0.47838918  0.91364277  0.30996603    -0.26200
C37         C  0.46805815  0.93772598  0.33087076    -0.02300
C38         C  0.49580017  0.95456418  0.34233532     0.09900
C39         C  0.52279581  0.93929173  0.32724409     0.03700
H40         H  0.44281581  0.94004462  0.34016319     0.11300
H41         H  0.54885936  0.94308095  0.33316369     0.10400
N42         N  0.42520941  0.83107515  0.28013727    -0.33400
N43         N  0.43882375  0.80206645  0.27176969    -0.25600
C44         C  0.41279428  0.78074912  0.26553118    -0.00800
C45         C  0.38205246  0.79748014  0.27041136     0.07800
C46         C  0.39162682  0.82914390  0.27962582     0.05900
H47         H  0.41580047  0.75503747  0.25784011     0.11000
H48         H  0.37517133  0.84972493  0.28546035     0.09800
N49         N  0.28142606  0.45739489  0.77538313    -0.24600
N50         N  0.31002126  0.44486574  0.78636315    -0.32400
C51         C  0.30936425  0.41130582  0.78634979     0.03800
C52         C  0.27902278  0.40048646  0.77475744     0.09800
C53         C  0.26161506  0.43050323  0.76786161    -0.03300
H54         H  0.32991796  0.39575421  0.79425404     0.10500
H55         H  0.23654085  0.43242327  0.75808649     0.11700
Cu56       Cu  0.35076175  0.47143237  0.80185586     0.44200
Cu57       Cu  0.27466681  0.51245584  0.77271077     0.42000
Cu58       Cu  0.35128608  0.55689307  0.80139852     0.43900
N59         N  0.39011723  0.49755090  0.82118660    -0.32000
N60         N  0.39042364  0.53041192  0.82132843    -0.26200
C61         C  0.41585739  0.54103028  0.84041944    -0.02300
C62         C  0.43230159  0.51322226  0.85251372     0.09900
C63         C  0.41528730  0.48608110  0.84005483     0.03700
H64         H  0.41989865  0.56671277  0.84763195     0.11300
H65         H  0.41870550  0.46021630  0.84695943     0.10400
N66         N  0.30913262  0.58122989  0.78521878    -0.33400
N67         N  0.28074557  0.56760363  0.77490964    -0.25600
C68         C  0.25985478  0.59368383  0.76742846    -0.00800
C69         C  0.27629199  0.62429720  0.77356298     0.07800
C70         C  0.30722515  0.61473633  0.78468043     0.05900
H71         H  0.23462881  0.59078938  0.75824025     0.11000
H72         H  0.32730387  0.63115484  0.79209230     0.09800
N73         N  0.22893441  0.29435257  0.05377431    -0.24600
N74         N  0.21693383  0.32261973  0.06620749    -0.32400
C75         C  0.21659265  0.32181954  0.09974239     0.03800
C76         C  0.22890768  0.29178773  0.11059867     0.09800
C77         C  0.23663682  0.27465819  0.08070705    -0.03300
H78         H  0.20801910  0.34214961  0.11528282     0.10500
H79         H  0.24722141  0.24987354  0.07888605     0.11700
Cu80       Cu  0.20070104  0.36355541  0.04013299     0.44200
Cu81       Cu  0.23342924  0.28731358  0.99892228     0.42000
Cu82       Cu  0.20940514  0.36481035  0.95611629     0.43900
N83         N  0.18245032  0.40264084  0.01261048    -0.32000
N84         N  0.18604997  0.40311448  0.97997678    -0.26200
C85         C  0.16682471  0.42725727  0.96696436    -0.02300
C86         C  0.15060721  0.44282187  0.99298888     0.09900
C87         C  0.16086890  0.42661600  0.02160748     0.03700
H88         H  0.16210922  0.43054889  0.94058658     0.11300
H89         H  0.15059363  0.42942671  0.04641335     0.10400
N90         N  0.22500994  0.32352875  0.93100791    -0.33400
N91         N  0.23360754  0.29426994  0.94388515    -0.25600
C92         C  0.24092119  0.27407762  0.91722344    -0.00800
C93         C  0.23642022  0.29209216  0.88713704     0.07800
C94         C  0.22638662  0.32300604  0.89755598     0.05900
H95         H  0.24878485  0.24833105  0.91934973     0.11000
H96         H  0.22012599  0.34398714  0.88178923     0.09800
N97         N  0.27285372  0.06640333  0.22234547    -0.24600
N98         N  0.28268680  0.07974716  0.19368382    -0.32400
C99         C  0.28280240  0.11324710  0.19537123     0.03800
C100        C  0.27254284  0.12315673  0.22647927     0.09800
C101        C  0.26626884  0.09268769  0.24326463    -0.03300
H102        H  0.28975334  0.12944551  0.17489061     0.10500
H103        H  0.25741164  0.09004398  0.26865755     0.11700
Cu104      Cu  0.29596762  0.05445001  0.15132543     0.44200
Cu105      Cu  0.26981909  0.01125825  0.22753720     0.42000
Cu106      Cu  0.28279170  0.96996164  0.14573070     0.43900
N107        N  0.31162982  0.02799177  0.11050173    -0.32000
N108        N  0.30617108  0.99567507  0.10799968    -0.26200
C109        C  0.32473613  0.98332717  0.08294769    -0.02300
C110        C  0.34251980  0.00937916  0.06908802     0.09900
C111        C  0.33373711  0.03734302  0.08712847     0.03700
H112        H  0.32814580  0.95700555  0.07800722     0.11300
H113        H  0.34542384  0.06162803  0.08601977     0.10400
N114        N  0.27326758  0.94381746  0.18886763    -0.33400
N115        N  0.26963032  0.95640107  0.21929075    -0.25600
C116        C  0.26675581  0.92961826  0.24042272    -0.06600
C117        C  0.26883891  0.89957874  0.22202461     0.07800
C118        C  0.27287658  0.91023557  0.18968846     0.05900
H119        H  0.26361381  0.93164622  0.26715707     0.11000
H120        H  0.27597120  0.89455187  0.16799821     0.09800
N121        N  0.77671417  0.72228722  0.55523678    -0.24600
N122        N  0.78530178  0.69305489  0.56828340    -0.32400
C123        C  0.78505636  0.69444733  0.60186320     0.03800
C124        C  0.77584337  0.72592518  0.61192847     0.09800
C125        C  0.77061399  0.74316807  0.58160829    -0.03300
H126        H  0.79119398  0.67367578  0.61794245     0.10500
H127        H  0.76292009  0.76891536  0.57910076     0.11700
Cu128      Cu  0.79816203  0.65055756  0.54235201     0.44200
Cu129      Cu  0.77472172  0.72962937  0.50043039     0.42000
Cu130      Cu  0.80418704  0.65498821  0.45627109     0.43900
N131        N  0.81563304  0.61097791  0.51464049    -0.32000
N132        N  0.81810235  0.61285907  0.48189955    -0.26200
C133        C  0.83537683  0.58646803  0.47058912    -0.02300
C134        C  0.84406174  0.56703122  0.49766355     0.09900
C135        C  0.83134061  0.58330095  0.52525475     0.03700
H136        H  0.84414357  0.58371413  0.44519814     0.11300
H137        H  0.83640152  0.57758817  0.55114785     0.10400
N138        N  0.78908864  0.69724779  0.43151852    -0.33400
N139        N  0.77744801  0.72496505  0.44537347    -0.25600
C140        C  0.76890786  0.74573957  0.41955560    -0.00800
C141        C  0.77583311  0.72994699  0.38877109     0.07800
C142        C  0.78853938  0.69946873  0.39801512     0.05900
H143        H  0.75817804  0.77030806  0.42273913     0.11000
H144        H  0.79639539  0.67972415  0.38140870     0.09800
N145        N  0.21269506  0.73425193  0.05187443    -0.24600
N146        N  0.18383045  0.72396660  0.06453282    -0.32400
C147        C  0.18478630  0.72427034  0.09817277     0.03800
C148        C  0.21557541  0.73521506  0.10873762     0.09800
C149        C  0.23283498  0.74145297  0.07857869    -0.03300
H150        H  0.16427856  0.71676331  0.11395231     0.10500
H151        H  0.25816097  0.75045150  0.07641570     0.11700
Cu152      Cu  0.14256256  0.70793624  0.03802584     0.44200
Cu153      Cu  0.22101789  0.73673003  0.99700022     0.42000
Cu154      Cu  0.14872698  0.70464184  0.95217400     0.43900
N155        N  0.10509936  0.68756738  0.00908463    -0.32000
N156        N  0.10772459  0.68652618  0.97632362    -0.26200
C157        C  0.08330016  0.66743033  0.96374287    -0.02300
C158        C  0.06429076  0.65600014  0.99000408     0.09900
C159        C  0.07877164  0.66901624  0.01846010     0.03700
H160        H  0.08175646  0.65960666  0.93794472     0.11300
H161        H  0.07284835  0.66263931  0.04402945     0.10400
N162        N  0.19016134  0.72131620  0.92774865    -0.33400
N163        N  0.21740411  0.73385667  0.94167339    -0.25600
C164        C  0.23803646  0.74263256  0.91578100    -0.00800
C165        C  0.22253725  0.73484664  0.88499063     0.07800
C166        C  0.19246653  0.72147028  0.89429725     0.05900
H167        H  0.26235154  0.75396706  0.91889847     0.11000
H168        H  0.17306990  0.71265542  0.87773702     0.09800
O169        O  0.04363642  0.48937430  0.96302750    -0.70200
O170        O  0.94846026  0.51904215  0.96745840    -0.71200
O171        O  0.01075759  0.55183576  0.96275176    -0.59800
O172        O  0.98125176  0.45643002  0.96786455    -0.68200
O173        O  0.98435917  0.45835759  0.02326061    -0.67800
O174        O  0.01366535  0.55345121  0.01817707    -0.59000
O175        O  0.95158128  0.52078943  0.02287684    -0.71600
O176        O  0.04649593  0.49130183  0.01845575    -0.70300
Cu177      Cu  0.99589897  0.50406187  0.96326699     1.04600
Cu178      Cu  0.99913359  0.50601056  0.02262953     1.04300
C179        C  0.05993032  0.48583829  0.99014055     0.96000
C180        C  0.93528179  0.52482097  0.99585540     0.95100
C181        C  0.01691910  0.56746941  0.98979021     0.87300
C182        C  0.97806847  0.44256427  0.99637661     0.93500
N183        N  0.70207143  0.95305451  0.24117634    -0.24600
N184        N  0.67281271  0.93990457  0.23293564    -0.32400
C185        C  0.67453000  0.90638198  0.23247900     0.03800
C186        C  0.70630246  0.89647908  0.24062161     0.09800
C187        C  0.72336515  0.92678213  0.24616721    -0.03300
H188        H  0.65399388  0.89023195  0.22562883     0.10500
H189        H  0.74942550  0.92936841  0.25277694     0.11700
Cu190      Cu  0.63103263  0.96540394  0.21767322     0.44200
Cu191      Cu  0.70908341  0.00779725  0.24327492     0.42000
Cu192      Cu  0.63252506  0.05112917  0.21750682     0.43900
N193        N  0.59572214  0.99250537  0.19226468    -0.32000
N194        N  0.59643474  0.02537723  0.19207142    -0.26200
C195        C  0.57526718  0.03681492  0.16871659    -0.02300
C196        C  0.56046940  0.00959337  0.15378195     0.09900
C197        C  0.57401679  0.98186067  0.16907072     0.03700
H198        H  0.57325864  0.06263588  0.16110166     0.11300
H199        H  0.57084619  0.95609071  0.16173055     0.10400
N200        N  0.67421993  0.07618977  0.23319242    -0.33400
N201        N  0.70328813  0.06271393  0.24153613    -0.25600
C202        C  0.72480461  0.08878961  0.24661008    -0.00800
C203        C  0.70798077  0.11930735  0.24099150     0.07800
C204        C  0.67618595  0.10968065  0.23273574     0.05900
H205        H  0.75081931  0.08593494  0.25321352     0.11000
H206        H  0.65587318  0.12596855  0.22567542     0.09800
O207        O  0.51096098  0.03292217  0.04617057    -0.70200
O208        O  0.47728068  0.02510700  0.95273987    -0.71200
O209        O  0.44706724  0.03029297  0.01621049    -0.59800
O210        O  0.54072660  0.02791488  0.98233676    -0.68200
O211        O  0.54121002  0.97253429  0.98641683    -0.67800
O212        O  0.44714760  0.97494312  0.02058753    -0.59000
O213        O  0.47742373  0.96971601  0.95685979    -0.71600
O214        O  0.51125299  0.97755523  0.05038327    -0.70300
Cu215      Cu  0.49398250  0.03100387  0.99925724     1.04600
Cu216      Cu  0.49425329  0.97169567  0.00380175     1.04300
C217        C  0.51650863  0.00636377  0.06284389     0.96000
C218        C  0.47237582  0.99632063  0.94012097     0.95100
C219        C  0.43241355  0.00303552  0.02361465     0.87300
C220        C  0.55541106  0.99993677  0.97854632     0.93500
N221        N  0.78231179  0.27739839  0.05485813    -0.24600
N222        N  0.81149231  0.28480467  0.06865562    -0.32400
C223        C  0.80915116  0.28498483  0.10215099     0.03800
C224        C  0.77702565  0.27748513  0.11141645     0.09800
C225        C  0.76041483  0.27262675  0.08070130    -0.03300
H226        H  0.82957135  0.29091965  0.11871545     0.10500
H227        H  0.73432409  0.26649095  0.07756045     0.11700
Cu228      Cu  0.85460129  0.29800569  0.04414374     0.44200
Cu229      Cu  0.77650392  0.27582506  0.99986777     0.42000
Cu230      Cu  0.85572987  0.29622928  0.95834550     0.43900
N231        N  0.89351535  0.31846114  0.01770578    -0.32000
N232        N  0.89399290  0.31746396  0.98484553    -0.26200
C233        C  0.91800021  0.33788621  0.97348483    -0.02300
C234        C  0.93337803  0.35226972  0.00068356     0.09900
C235        C  0.91722819  0.33961585  0.02838227     0.03700
H236        H  0.92137066  0.34460625  0.94754928     0.11300
H237        H  0.91995324  0.34789213  0.05391969     0.10400
N238        N  0.81329977  0.28455927  0.93220717    -0.33400
N239        N  0.78355232  0.27770931  0.94502781    -0.25600
C240        C  0.76241271  0.27363284  0.91845899    -0.00800
C241        C  0.78013085  0.27838952  0.88830613     0.07800
C242        C  0.81207245  0.28514110  0.89866671     0.05900
H243        H  0.73610410  0.26792934  0.92072093     0.11000
H244        H  0.83318525  0.29068457  0.88281978     0.09800
C245        C  0.72573211  0.73961186  0.27091917     0.48200
H246        H  0.71032098  0.72330691  0.28722703    -0.00900
C247        C  0.76181631  0.77781761  0.23281798     0.48200
H248        H  0.77714272  0.79420785  0.21650901    -0.00900
C249        C  0.70783651  0.77306887  0.26150725    -0.14500
C250        C  0.75966401  0.74994741  0.28729140    -0.14300
C251        C  0.73535343  0.72270708  0.23707107    -0.14700
C252        C  0.72844856  0.79449239  0.24404511    -0.14700
C253        C  0.78006200  0.76763875  0.26566897    -0.14200
C254        C  0.75176413  0.74433833  0.21561802    -0.14500
N255        N  0.71860217  0.45246655  0.22101892    -0.24600
N256        N  0.68990034  0.43939540  0.21100351    -0.32400
C257        C  0.69134654  0.40587546  0.21064120     0.03800
C258        C  0.72232207  0.39561060  0.22097911     0.09800
C259        C  0.73928157  0.42592322  0.22751500    -0.03300
H260        H  0.67072542  0.38991558  0.20366665     0.10500
H261        H  0.76462133  0.42827157  0.23660389     0.11700
Cu262      Cu  0.64752526  0.46497532  0.19847780     0.44200
Cu263      Cu  0.72413017  0.50770864  0.22455590     0.42000
Cu264      Cu  0.64364469  0.54997788  0.20621530     0.43900
N265        N  0.60603299  0.49082666  0.18373514    -0.32000
N266        N  0.60437241  0.52352537  0.18654985    -0.26200
C267        C  0.57781288  0.53469734  0.16936664    -0.02300
C268        C  0.56204209  0.50741624  0.15540873     0.09900
C269        C  0.58061278  0.48002466  0.16485174     0.03700
H270        H  0.57269211  0.56071920  0.16430291     0.11300
H271        H  0.57816223  0.45480476  0.15555935     0.10400
N272        N  0.68634420  0.57562006  0.21842984    -0.33400
N273        N  0.71629371  0.56282073  0.22459119    -0.25600
C274        C  0.73708987  0.58954183  0.22972975    -0.00800
C275        C  0.71894331  0.61972864  0.22646550     0.07800
C276        C  0.68714471  0.60917279  0.21940485     0.05900
H277        H  0.76344228  0.58738677  0.23527646     0.11000
H278        H  0.66572632  0.62497541  0.21482128     0.09800
C279        C  0.76399853  0.23742143  0.23125122     0.48200
H280        H  0.77943710  0.22049030  0.21561342    -0.00900
C281        C  0.72789724  0.27693871  0.26795235     0.48200
H282        H  0.71243461  0.29377512  0.28365908    -0.00900
C283        C  0.75473467  0.27068556  0.21322797    -0.14500
C284        C  0.73027606  0.22142310  0.24226818    -0.14300
C285        C  0.78171823  0.24811201  0.26409766    -0.14700
C286        C  0.73823751  0.29297425  0.23391020    -0.14700
C287        C  0.70977653  0.24366575  0.25884256    -0.14200
C288        C  0.76130608  0.26639074  0.28513191    -0.14500
N289        N  0.55051869  0.23470506  0.28055820    -0.24600
N290        N  0.56359753  0.22709222  0.30999360    -0.32400
C291        C  0.59710526  0.22670114  0.30853025     0.03800
C292        C  0.60722344  0.23446452  0.27676265     0.09800
C293        C  0.57693441  0.23951528  0.25933857    -0.03300
H294        H  0.61312567  0.22121750  0.32953767     0.10500
H295        H  0.57449171  0.24633040  0.23331702     0.11700
Cu296      Cu  0.53792134  0.21665373  0.35293272     0.44200
Cu297      Cu  0.49559122  0.23759370  0.27466755     0.42000
Cu298      Cu  0.45336599  0.22830390  0.35668361     0.43900
N299        N  0.51105216  0.20125181  0.39359154    -0.32000
N300        N  0.47853971  0.20580713  0.39525765    -0.26200
C301        C  0.46606110  0.18690803  0.42001849    -0.02300
C302        C  0.49227178  0.16991901  0.43461163     0.09900
C303        C  0.52041671  0.17948081  0.41726044     0.03700
H304        H  0.43974319  0.18266695  0.42419818     0.11300
H305        H  0.54496486  0.16833600  0.41888715     0.10400
N306        N  0.42793445  0.23669501  0.31297059    -0.33400
N307        N  0.44083580  0.23874227  0.28252117    -0.25600
C308        C  0.41432890  0.24075675  0.26101228    -0.00800
C309        C  0.38414712  0.23980633  0.27922960     0.07800
C310        C  0.39438603  0.23733410  0.31182334     0.05900
H311        H  0.41664645  0.24241400  0.23417723     0.11000
H312        H  0.37845631  0.23525049  0.33345655     0.09800
N313        N  0.05906725  0.23445628  0.72258222    -0.24600
N314        N  0.07216445  0.20552907  0.71311896    -0.32400
C315        C  0.10566560  0.20677922  0.71345164     0.03800
C316        C  0.11581298  0.23780522  0.72356159     0.09800
C317        C  0.08553789  0.25505754  0.72932761    -0.03300
H318        H  0.12169722  0.18622623  0.70631740     0.10500
H319        H  0.08313794  0.28064956  0.73761436     0.11700
Cu320      Cu  0.04722219  0.16396775  0.69692069     0.44200
Cu321      Cu  0.00405885  0.24135733  0.72415253     0.42000
Cu322      Cu  0.96326579  0.17034859  0.68350025     0.43900
N323        N  0.02195422  0.12713924  0.67206040    -0.32000
N324        N  0.98967082  0.12995980  0.66660755    -0.26200
C325        C  0.97973978  0.10544503  0.64612666    -0.02300
C326        C  0.00729646  0.08630101  0.63847669     0.09900
C327        C  0.03379987  0.10078171  0.65502457     0.03700
H328        H  0.95501557  0.10340679  0.63550482     0.11300
H329        H  0.05993678  0.09445811  0.65264706     0.10400
N330        N  0.93672841  0.20909480  0.70365898    -0.33400
N331        N  0.94912794  0.23535587  0.71949314    -0.25600
C332        C  0.92217148  0.25356438  0.73020807    -0.00800
C333        C  0.89225872  0.23761110  0.72027916     0.07800
C334        C  0.90317965  0.20975629  0.70364650     0.05900
H335        H  0.92398436  0.27646552  0.74439466     0.11000
H336        H  0.88769020  0.19065460  0.69262826     0.09800
O337        O  0.02822882  0.99734148  0.44218453    -0.70200
O338        O  0.03402332  0.02749708  0.53716786    -0.71200
O339        O  0.02978559  0.96479710  0.50489179    -0.59800
O340        O  0.03215719  0.05998706  0.47485069    -0.68200
O341        O  0.97670974  0.06189599  0.47753134    -0.67800
O342        O  0.97434713  0.96710963  0.50735621    -0.59000
O343        O  0.97858934  0.02956657  0.53975449    -0.71600
O344        O  0.97280670  0.99947146  0.44471428    -0.70300
Cu345      Cu  0.03303692  0.01227021  0.48961990     1.04600
Cu346      Cu  0.97365628  0.01454279  0.49238384     1.04300
C347        C  0.99966934  0.99357813  0.42864429     0.96000
C348        C  0.00718489  0.03369847  0.55312474     0.95100
C349        C  0.00165597  0.95123862  0.51112555     0.87300
C350        C  0.00471385  0.07587804  0.47191647     0.93500
N351        N  0.21828228  0.28555207  0.55400809    -0.24600
N352        N  0.19882709  0.30866780  0.56742675    -0.32400
C353        C  0.19967988  0.30723867  0.60090355     0.03800
C354        C  0.22085783  0.28217673  0.61062035     0.09800
C355        C  0.23242322  0.26862619  0.58015332    -0.03300
H356        H  0.18698875  0.32466380  0.61713850     0.10500
H357        H  0.25045594  0.24869790  0.57741209     0.11700
Cu358      Cu  0.17696751  0.34708455  0.54234293     0.44200
Cu359      Cu  0.22331393  0.28311043  0.49908064     0.42000
Cu360      Cu  0.20162779  0.36440682  0.46103477     0.43900
N361        N  0.16777095  0.39222011  0.52068266    -0.32000
N362        N  0.17755431  0.39945617  0.49012112    -0.26200
C363        C  0.16434147  0.42901468  0.48122608    -0.02300
C364        C  0.14587722  0.44081940  0.50787656     0.09900
C365        C  0.14848611  0.41689170  0.53240248     0.03700
H366        H  0.16516878  0.43926790  0.45627464     0.11300
H367        H  0.13467325  0.41579685  0.55559067     0.10400
N368        N  0.21466223  0.32313874  0.43299921    -0.33400
N369        N  0.22168108  0.29294345  0.44473529    -0.25600
C370        C  0.22614362  0.27277791  0.41751279    -0.00800
C371        C  0.22161185  0.29143935  0.38794696     0.07800
C372        C  0.21449621  0.32304454  0.39936528     0.05900
H373        H  0.23197044  0.24643593  0.41893981     0.11000
H374        H  0.20890224  0.34464729  0.38416976     0.09800
N375        N  0.28771145  0.06650011  0.76669456    -0.24600
N376        N  0.31545622  0.07855969  0.78013697    -0.32400
C377        C  0.31492497  0.11208792  0.78060051     0.03800
C378        C  0.28561720  0.12316236  0.76684390     0.09800
C379        C  0.26866162  0.09355618  0.75811868    -0.03300
H380        H  0.33494058  0.12746408  0.79024622     0.10500
H381        H  0.24443193  0.09199177  0.74632241     0.11700
Cu382      Cu  0.35515047  0.05163069  0.79780622     0.44200
Cu383      Cu  0.28018946  0.01205938  0.76167622     0.42000
Cu384      Cu  0.35840435  0.96821135  0.78087272     0.43900
N385        N  0.39312884  0.02256665  0.81580962    -0.32000
N386        N  0.39457303  0.99043782  0.80907895    -0.26200
C387        C  0.41736851  0.97593901  0.82892684    -0.02300
C388        C  0.43101709  0.00050023  0.84874334     0.09900
C389        C  0.41513677  0.02973607  0.83994832     0.03700
H390        H  0.42092091  0.94926738  0.83132337     0.11300
H391        H  0.41672451  0.05352330  0.85263001     0.10400
N392        N  0.31602073  0.94375638  0.76666382    -0.33400
N393        N  0.28632974  0.95719610  0.76086004    -0.25600
C394        C  0.26480457  0.93104959  0.75618348    -0.00800
C395        C  0.28235064  0.90058486  0.75941363     0.07800
C396        C  0.31446255  0.91029277  0.76593497     0.05900
H397        H  0.23835813  0.93379571  0.75138095     0.11000
H398        H  0.33540482  0.89401226  0.77096993     0.09800
C399        C  0.27346870  0.28019204  0.72979870     0.48200
H400        H  0.28965126  0.29602887  0.71377960    -0.00900
C401        C  0.23548086  0.24311285  0.76717461     0.48200
H402        H  0.21928263  0.22721655  0.78313044    -0.00900
C403        C  0.23982143  0.27036742  0.71264903    -0.14500
C404        C  0.29029871  0.24647499  0.74000555    -0.14300
C405        C  0.26333969  0.29747759  0.76331284    -0.14700
C406        C  0.21844108  0.25361553  0.73389110    -0.14700
C407        C  0.26869716  0.22565766  0.75705977    -0.14200
C408        C  0.24596670  0.27624765  0.78440189    -0.14500
N409        N  0.55874478  0.21514051  0.73625999    -0.24600
N410        N  0.57186990  0.18626388  0.72671566    -0.32400
C411        C  0.60544465  0.18794236  0.72632611     0.03800
C412        C  0.61542518  0.21931418  0.73596768     0.09800
C413        C  0.58505459  0.23612603  0.74227039    -0.03300
H414        H  0.62154700  0.16768161  0.71880007     0.10500
H415        H  0.58246352  0.26179200  0.75016642     0.11700
Cu416      Cu  0.54577098  0.14475952  0.71129660     0.44200
Cu417      Cu  0.50384509  0.22193122  0.73863276     0.42000
Cu418      Cu  0.45959766  0.14373367  0.71937286     0.43900
N419        N  0.51722977  0.10766326  0.69013757    -0.32000
N420        N  0.48451976  0.10699111  0.69365196    -0.26200
C421        C  0.47154537  0.08515088  0.67177424    -0.02300
C422        C  0.49751360  0.07145548  0.65375568     0.09900
C423        C  0.52613346  0.08623762  0.66593464     0.03700
H424        H  0.44518967  0.08261873  0.66658006     0.11300
H425        H  0.55091143  0.08458572  0.65535886     0.10400
N426        N  0.43482878  0.18713789  0.73119572    -0.33400
N427        N  0.44875431  0.21657846  0.73715549    -0.25600
C428        C  0.42301282  0.23888076  0.74044904    -0.00800
C429        C  0.39217339  0.22229763  0.73615667     0.07800
C430        C  0.40133182  0.18972620  0.73046931     0.05900
H431        H  0.42630849  0.26528175  0.74513810     0.11000
H432        H  0.38465634  0.16913087  0.72523673     0.09800
C433        C  0.73377278  0.27641024  0.73127727     0.48200
H434        H  0.71723439  0.29235882  0.71573427    -0.00900
C435        C  0.77246499  0.23902266  0.76763211     0.48200
H436        H  0.78899366  0.22303897  0.78316421    -0.00900
C437        C  0.76748003  0.26750029  0.71360518    -0.14500
C438        C  0.74365391  0.29307840  0.76517945    -0.14300
C439        C  0.71751915  0.24222659  0.74083844    -0.14700
C440        C  0.78924670  0.25051645  0.73440386    -0.14700
C441        C  0.76149960  0.27172699  0.78570421    -0.14200
C442        C  0.73941531  0.22119457  0.75728684    -0.14500
N443        N  0.73137698  0.45171377  0.79204366    -0.24600
N444        N  0.72411525  0.43830530  0.82147411    -0.32400
C445        C  0.72527266  0.40473420  0.81992658     0.03800
C446        C  0.73360831  0.39498255  0.78809710     0.09800
C447        C  0.73741453  0.42554974  0.77084731    -0.03300
H448        H  0.71971101  0.38841924  0.84066956     0.10500
H449        H  0.74377803  0.42835071  0.74473799     0.11700
Cu450      Cu  0.70915658  0.46357552  0.86371940     0.44200
Cu451      Cu  0.73107827  0.50674006  0.78483974     0.42000
Cu452      Cu  0.69385309  0.54872375  0.85672002     0.43900
N453        N  0.68440697  0.48957480  0.90054036    -0.32000
N454        N  0.67845779  0.52180341  0.89752815    -0.26200
C455        C  0.65719766  0.53141599  0.92154246    -0.02300
C456        C  0.64940003  0.50380664  0.94053835     0.09900
C457        C  0.66687183  0.47757564  0.92654621     0.03700
H458        H  0.64563593  0.55580067  0.92286761     0.11300
H459        H  0.66431949  0.45137088  0.93251847     0.10400
N460        N  0.71138067  0.57486054  0.81625327    -0.33400
N461        N  0.72594261  0.56177847  0.78956142    -0.25600
C462        C  0.73543922  0.58819125  0.76996161    -0.00800
C463        C  0.72612049  0.61855637  0.78541256     0.07800
C464        C  0.71099589  0.60841594  0.81448676     0.05900
H465        H  0.74846137  0.58571462  0.74643838     0.11000
H466        H  0.70085132  0.62448667  0.83367810     0.09800
C467        C  0.76645666  0.77540432  0.76770428     0.48200
H468        H  0.78225110  0.79179098  0.78352227    -0.00900
C469        C  0.72948880  0.73708103  0.73070193     0.48200
H470        H  0.71370529  0.72069311  0.71487021    -0.00900
C471        C  0.73316239  0.79243318  0.75659146    -0.14500
C472        C  0.78415176  0.76446833  0.73468380    -0.14300
C473        C  0.75593968  0.74239688  0.78570479    -0.14700
C474        C  0.71220032  0.77089687  0.73955917    -0.14700
C475        C  0.76326241  0.74664027  0.71375503    -0.14200
C476        C  0.73897026  0.72071457  0.76479605    -0.14500
N477        N  0.55359623  0.78466984  0.71397651    -0.24600
N478        N  0.56706427  0.79253582  0.68472033    -0.32400
C479        C  0.60062030  0.79140995  0.68633640     0.03800
C480        C  0.61030572  0.78249425  0.71801352     0.09800
C481        C  0.57972811  0.77827453  0.73512242    -0.03300
H482        H  0.61696037  0.79730980  0.66573048     0.10500
H483        H  0.57689270  0.77133180  0.76107425     0.11700
Cu484      Cu  0.54217985  0.80796746  0.64240018     0.44200
Cu485      Cu  0.49857658  0.78448955  0.72117681     0.42000
Cu486      Cu  0.45677977  0.81820563  0.64757072     0.43900
N487        N  0.51585317  0.83172649  0.60513660    -0.32000
N488        N  0.48326942  0.83560481  0.60741657    -0.26200
C489        C  0.47281993  0.85632524  0.58326122    -0.02300
C490        C  0.50027978  0.86585513  0.56486422     0.09900
C491        C  0.52727336  0.85005212  0.57941639     0.03700
H492        H  0.44775697  0.86619639  0.58132559     0.11300
H493        H  0.55338309  0.85408495  0.57385374     0.10400
N494        N  0.43060619  0.80186858  0.68837213    -0.33400
N495        N  0.44353060  0.78897124  0.71597743    -0.25600
C496        C  0.41697495  0.78075770  0.73597466    -0.00800
C497        C  0.38672990  0.78919952  0.71975659     0.07800
C498        C  0.39706697  0.80241314  0.68987066     0.05900
H499        H  0.41927621  0.76931195  0.76032594     0.11000
H500        H  0.38117485  0.81157210  0.67009143     0.09800
C501        C  0.22984467  0.78097177  0.76547152     0.48200
H502        H  0.21403165  0.79705363  0.78162215    -0.00900
C503        C  0.26688376  0.74342013  0.72767244     0.48200
H504        H  0.28272086  0.72736449  0.71152422    -0.00900
C505        C  0.21222398  0.77064943  0.73235449    -0.14500
C506        C  0.26305658  0.79815730  0.75470378    -0.14300
C507        C  0.24032578  0.74763578  0.78271771    -0.14700
C508        C  0.23313179  0.75340777  0.71087999    -0.14700
C509        C  0.28414987  0.77694031  0.73742020    -0.14200
C510        C  0.25725139  0.72638077  0.76138392    -0.14500
N511        N  0.04906984  0.79503770  0.26884559    -0.24600
N512        N  0.06231478  0.82494943  0.27398795    -0.32400
C513        C  0.09587998  0.82327379  0.27415517     0.03800
C514        C  0.10579933  0.79085866  0.26892160     0.09800
C515        C  0.07535432  0.77336569  0.26549923    -0.03300
H516        H  0.11204254  0.84438919  0.27845539     0.10500
H517        H  0.07270720  0.74685814  0.26125024     0.11700
Cu518      Cu  0.03681758  0.86835769  0.28426828     0.44200
Cu519      Cu  0.99408092  0.78806517  0.26818219     0.42000
Cu520      Cu  0.95087180  0.86599281  0.29014469     0.43900
N521        N  0.01040310  0.90717626  0.30504635    -0.32000
N522        N  0.97762675  0.90609047  0.30750745    -0.26200
C523        C  0.96726366  0.93036938  0.32817038    -0.02300
C524        C  0.99502650  0.94755395  0.33906578     0.09900
C525        C  0.02200878  0.93220471  0.32408913     0.03700
H526        H  0.94208486  0.93277065  0.33749259     0.11300
H527        H  0.04806966  0.93628777  0.32967183     0.10400
N528        N  0.92552069  0.82294557  0.27867120    -0.33400
N529        N  0.93899819  0.79370666  0.27092396    -0.25600
C530        C  0.91288987  0.77202655  0.26658695    -0.00800
C531        C  0.88232738  0.78884631  0.27212981     0.07800
C532        C  0.89200734  0.82086629  0.27958286     0.05900
H533        H  0.91573361  0.74597782  0.26013504     0.11000
H534        H  0.87570748  0.84147023  0.28567868     0.09800
C535        C  0.26244376  0.74175322  0.26628720     0.48200
H536        H  0.27798840  0.72527400  0.28229784    -0.00900
C537        C  0.22600908  0.78021391  0.22877914     0.48200
H538        H  0.21044315  0.79670034  0.21278223    -0.00900
C539        C  0.22859803  0.75185960  0.28306697    -0.14500
C540        C  0.28016258  0.77539725  0.25719972    -0.14300
C541        C  0.25275817  0.72523471  0.23218731    -0.14700
C542        C  0.20805825  0.76973012  0.26172797    -0.14700
C543        C  0.25943512  0.79694164  0.23981858    -0.14200
C544        C  0.23594816  0.74694033  0.21113408    -0.14500
N545        N  0.26423170  0.45626347  0.20730055    -0.24600
N546        N  0.27421262  0.44288437  0.17871470    -0.32400
C547        C  0.27462013  0.40934531  0.18066424     0.03800
C548        C  0.26437909  0.39953893  0.21189309     0.09800
C549        C  0.25786405  0.43006702  0.22839940    -0.03300
H550        H  0.28188859  0.39308108  0.16039232     0.10500
H551        H  0.24907599  0.43281425  0.25379077     0.11700
Cu552      Cu  0.28792486  0.46859202  0.13652061     0.44200
Cu553      Cu  0.26078435  0.51135638  0.21259915     0.42000
Cu554      Cu  0.27808007  0.55439196  0.13255650     0.43900
N555        N  0.30626915  0.49588843  0.09721224    -0.32000
N556        N  0.30250414  0.52852753  0.09551818    -0.26200
C557        C  0.32312223  0.54074857  0.07202377    -0.02300
C558        C  0.34046707  0.51430422  0.05832386     0.09900
C559        C  0.32924409  0.48624912  0.07481691     0.03700
H560        H  0.32813681  0.56699604  0.06828962     0.11300
H561        H  0.33995643  0.46150299  0.07367886     0.10400
N562        N  0.26566268  0.57970294  0.17551875    -0.33400
N563        N  0.26043985  0.56635706  0.20540044    -0.25600
C564        C  0.25626710  0.59256547  0.22698115    -0.00800
C565        C  0.25914080  0.62308523  0.20947609     0.07800
C566        C  0.26498077  0.61327668  0.17712372     0.05900
H567        H  0.25190775  0.58982521  0.25346938     0.11000
H568        H  0.26935088  0.62953541  0.15606347     0.09800
N569        N  0.20846343  0.73809250  0.55216069    -0.24600
N570        N  0.18313544  0.72175879  0.56583564    -0.32400
C571        C  0.18513469  0.72228992  0.59934829     0.03800
C572        C  0.21299727  0.73980056  0.60886023     0.09800
C573        C  0.22746311  0.74964181  0.57815847    -0.03300
H574        H  0.16696106  0.71095197  0.61582774     0.10500
H575        H  0.24995328  0.76430832  0.57516408     0.11700
Cu576      Cu  0.14410549  0.70041520  0.54059649     0.44200
Cu577      Cu  0.21210760  0.74224905  0.49698649     0.42000
Cu578      Cu  0.13300334  0.71743817  0.45612526     0.43900
N579        N  0.10294476  0.68401110  0.51502292    -0.32000
N580        N  0.09811060  0.69103674  0.48323400    -0.26200
C581        C  0.07143575  0.67392795  0.47220964    -0.02300
C582        C  0.05893547  0.65563717  0.49863027     0.09900
C583        C  0.07953293  0.66240367  0.52531492     0.03700
H584        H  0.06368367  0.67257171  0.44637236     0.11300
H585        H  0.07927538  0.65041786  0.54953005     0.10400
N586        N  0.17430874  0.73294252  0.42952337    -0.33400
N587        N  0.20382787  0.74108371  0.44216306    -0.25600
C588        C  0.22439667  0.74701676  0.41547052    -0.00800
C589        C  0.20668260  0.74227912  0.38533788     0.07800
C590        C  0.17521024  0.73347338  0.39589920     0.05900
H591        H  0.25039836  0.75400842  0.41762413     0.11000
H592        H  0.15427357  0.72718918  0.38010806     0.09800
N593        N  0.05277784  0.78517715  0.71456391    -0.24600
N594        N  0.06541361  0.80480025  0.69111659    -0.32400
C595        C  0.09892783  0.80501394  0.69226400     0.03800
C596        C  0.10955515  0.78450857  0.71752299     0.09800
C597        C  0.07954053  0.77212889  0.73143745    -0.03300
H598        H  0.11462210  0.81853349  0.67490710     0.10500
H599        H  0.07754037  0.75456638  0.75187252     0.11700
Cu600      Cu  0.03917169  0.82789092  0.65415367     0.44200
Cu601      Cu  0.99785583  0.77891995  0.71832572     0.42000
Cu602      Cu  0.95521666  0.81153174  0.64266339     0.43900
N603        N  0.01481626  0.84253080  0.61192832    -0.32000
N604        N  0.98293353  0.83617481  0.60701905    -0.26200
C605        C  0.97307124  0.85124909  0.57869484    -0.02300
C606        C  0.00045764  0.86731229  0.56524439     0.09900
C607        C  0.02642349  0.86150283  0.58694930     0.03700
H608        H  0.94752585  0.85255823  0.57004251     0.11300
H609        H  0.05116706  0.87231836  0.58607229     0.10400
N610        N  0.92971545  0.79180735  0.68280785    -0.33400
N611        N  0.94293843  0.78009827  0.71085939    -0.25600
C612        C  0.91665830  0.77091021  0.73075339    -0.00800
C613        C  0.88621729  0.77734420  0.71410954     0.07800
C614        C  0.89614618  0.79048297  0.68400080     0.05900
H615        H  0.91930051  0.76050380  0.75552481     0.11000
H616        H  0.87994857  0.79892858  0.66414714     0.09800
N617        N  0.72197667  0.06187884  0.77556588    -0.24600
N618        N  0.70701176  0.07497900  0.80204774    -0.32400
C619        C  0.70823506  0.10851069  0.80115231     0.03800
C620        C  0.72473206  0.11863821  0.77289060     0.09800
C621        C  0.73327641  0.08830328  0.75696289    -0.03300
H622        H  0.69795032  0.12455397  0.82026923     0.10500
H623        H  0.74686447  0.08582897  0.73373020     0.11700
Cu624      Cu  0.68580331  0.04938369  0.84106461     0.44200
Cu625      Cu  0.72495156  0.00686102  0.76946920     0.42000
Cu626      Cu  0.70020349  0.96505276  0.84748481     0.43900
N627        N  0.66840439  0.02243047  0.88104913    -0.32000
N628        N  0.67470338  0.99028007  0.88393715    -0.26200
C629        C  0.65753940  0.97791010  0.90994790    -0.02300
C630        C  0.63990369  0.00382821  0.92414682     0.09900
C631        C  0.64710187  0.03168843  0.90520702     0.03700
H632        H  0.65583978  0.95167784  0.91619633     0.11300
H633        H  0.63579310  0.05614123  0.90720535     0.10400
N634        N  0.71446172  0.93910338  0.80578464    -0.33400
N635        N  0.72284208  0.95190350  0.77641545    -0.25600
C636        C  0.72837087  0.92525760  0.75566888    -0.00800
C637        C  0.72298513  0.89511477  0.77327801     0.07800
C638        C  0.71430586  0.90555784  0.80471055     0.05900
H639        H  0.73564882  0.92744580  0.72976022     0.11000
H640        H  0.70788274  0.88976459  0.82559790     0.09800
N641        N  0.05059108  0.24591265  0.28500969    -0.24600
N642        N  0.06326367  0.24164487  0.31529686    -0.32400
C643        C  0.09677238  0.24258563  0.31456632     0.03800
C644        C  0.10733117  0.24768180  0.28243146     0.09800
C645        C  0.07731110  0.24978675  0.26398196    -0.03300
H646        H  0.11249646  0.23897630  0.33618553     0.10500
H647        H  0.07525949  0.25348932  0.23730436     0.11700
Cu648      Cu  0.03768532  0.23040879  0.35803883     0.44200
Cu649      Cu  0.99580188  0.24488702  0.27732340     0.42000
Cu650      Cu  0.95386828  0.21925742  0.35520935     0.43900
N651        N  0.01337891  0.20654948  0.39608081    -0.32000
N652        N  0.98086356  0.20213765  0.39485766    -0.26200
C653        C  0.97192385  0.17926102  0.41760098    -0.02300
C654        C  0.00043785  0.16887624  0.43382549     0.09900
C655        C  0.02635266  0.18649464  0.41958505     0.03700
H656        H  0.94748414  0.16791946  0.41902587     0.11300
H657        H  0.05273347  0.18186575  0.42282694     0.10400
N658        N  0.92827299  0.23186833  0.31303608    -0.33400
N659        N  0.94099794  0.24115762  0.28390909    -0.25600
C660        C  0.91430842  0.24684094  0.26328708    -0.00800
C661        C  0.88432394  0.24058766  0.28081016     0.07800
C662        C  0.89479761  0.23125584  0.31195724     0.05900
H663        H  0.91636399  0.25500171  0.23762742     0.11000
H664        H  0.87904879  0.22447972  0.33282717     0.09800
C665        C  0.26473299  0.28133969  0.26839312     0.48200
H666        H  0.28058557  0.29781866  0.28406240    -0.00900
C667        C  0.22771818  0.24273840  0.23173683     0.48200
H668        H  0.21187186  0.22626340  0.21605922    -0.00900
C669        C  0.25515261  0.29746098  0.23423649    -0.14500
C670        C  0.28191768  0.24745445  0.25968118    -0.14300
C671        C  0.23101599  0.27193579  0.28546493    -0.14700
C672        C  0.23819172  0.27557658  0.21356848    -0.14700
C673        C  0.26094411  0.22575115  0.24294203    -0.14200
C674        C  0.21009716  0.25406038  0.26456375    -0.14500
N675        N  0.76536888  0.72293900  0.05620080    -0.24600
N676        N  0.77941187  0.69601010  0.06944952    -0.32400
C677        C  0.77876992  0.69727445  0.10297872     0.03800
C678        C  0.76358777  0.72625708  0.11303887     0.09800
C679        C  0.75523317  0.74223309  0.08261802    -0.03300
H680        H  0.78863599  0.67796650  0.11906399     0.10500
H681        H  0.74264077  0.76600667  0.08010023     0.11700
Cu682      Cu  0.79913658  0.65615245  0.04426256     0.44200
Cu683      Cu  0.76221136  0.72868413  0.00093685     0.42000
Cu684      Cu  0.79152271  0.65226358  0.95907463     0.43900
N685        N  0.81783559  0.61653548  0.01794140    -0.32000
N686        N  0.81453622  0.61483695  0.98528881    -0.26200
C687        C  0.83273413  0.58920839  0.97368289    -0.02300
C688        C  0.84790480  0.57404174  0.00060478     0.09900
C689        C  0.83819468  0.59201184  0.02830311     0.03700
H690        H  0.83710648  0.58409984  0.94754831     0.11300
H691        H  0.84757608  0.58944362  0.05347893     0.10400
N692        N  0.77515976  0.69315595  0.93301763    -0.33400
N693        N  0.76464374  0.72185507  0.94576246    -0.25600
C694        C  0.75749397  0.74202411  0.91898777    -0.00800
C695        C  0.76406439  0.72475481  0.88883710     0.07800
C696        C  0.77511636  0.69412221  0.89946357     0.05900
H697        H  0.74833540  0.76733853  0.92107731     0.11000
H698        H  0.78297058  0.67361791  0.88371728     0.09800
O699        O  0.54731820  0.53281393  0.99064777    -0.70200
O700        O  0.45107205  0.54075754  0.01664906    -0.71200
O701        O  0.51227548  0.53640256  0.05177110    -0.59800
O702        O  0.48622224  0.53761519  0.95569748    -0.68200
O703        O  0.48195019  0.48225447  0.95600503    -0.67800
O704        O  0.50829571  0.48102712  0.05244806    -0.59000
O705        O  0.44712092  0.48538516  0.01717977    -0.71600
O706        O  0.54316467  0.47745589  0.99106882    -0.70300
Cu707      Cu  0.49940123  0.53884276  0.00370408     1.04600
Cu708      Cu  0.49498681  0.47954417  0.00423117     1.04300
C709        C  0.56019480  0.50395858  0.98656824     0.96000
C710        C  0.43403053  0.51418298  0.02080561     0.95100
C711        C  0.51459538  0.50859752  0.06707547     0.87300
C712        C  0.47969604  0.51023455  0.94091842     0.93500
O713        O  0.46822689  0.00048336  0.44861713    -0.70200
O714        O  0.46613406  0.02873254  0.54468075    -0.71200
O715        O  0.46410708  0.06249873  0.48239654    -0.59800
O716        O  0.47021455  0.96685623  0.51099146    -0.68200
O717        O  0.52562776  0.97019442  0.51097842    -0.67800
O718        O  0.51952916  0.06568900  0.48247045    -0.59000
O719        O  0.52154463  0.03197025  0.54455105    -0.71600
O720        O  0.52362612  0.00380859  0.44866601    -0.70300
Cu721      Cu  0.46518498  0.01452235  0.49662734     1.04600
Cu722      Cu  0.52452240  0.01805781  0.49663788     1.04300
C723        C  0.49622829  0.99767087  0.43366603     0.96000
C724        C  0.49362528  0.03460692  0.55964281     0.95100
C725        C  0.49096061  0.07900319  0.47792844     0.87300
C726        C  0.49883437  0.95372263  0.51583429     0.93500
O727        O  0.98485407  0.45408747  0.47727097    -0.70200
O728        O  0.00735063  0.55110456  0.47145526    -0.71200
O729        O  0.04448144  0.49146318  0.47591936    -0.59800
O730        O  0.94733148  0.51380137  0.47280915    -0.68200
O731        O  0.94637463  0.51704136  0.52822619    -0.67800
O732        O  0.04355339  0.49465507  0.53134998    -0.59000
O733        O  0.00637479  0.55434244  0.52687115    -0.71600
O734        O  0.98379415  0.45715539  0.53269202    -0.70300
Cu735      Cu  0.99598469  0.50248651  0.47240872     1.04600
Cu736      Cu  0.99493337  0.50593565  0.53176788     1.04300
C737        C  0.98089184  0.44043560  0.50576255     0.96000
C738        C  0.01090474  0.56775235  0.49833313     0.95100
C739        C  0.05913251  0.48940857  0.50408734     0.87300
C740        C  0.93174115  0.51917866  0.50004009     0.93500
C741        C  0.14295108  0.24927957  0.27282535    -0.10600
C742        C  0.17350323  0.25050753  0.26950855    -0.12100
C743        C  0.02229347  0.60148900  0.49661808    -0.10600
C744        C  0.03665769  0.62781716  0.49661769    -0.12100
C745        C  0.26131267  0.36415996  0.22247472    -0.10600
C746        C  0.25943422  0.33379353  0.22742036    -0.12100
C747        C  0.37170925  0.51650732  0.04113405    -0.10600
C748        C  0.39974861  0.51649131  0.03042690    -0.12100
C749        C  0.22187640  0.74706529  0.31939527    -0.10600
C750        C  0.21685692  0.74500950  0.34976220    -0.12100
C751        C  0.25656833  0.68878363  0.22571332    -0.10600
C752        C  0.25772476  0.65842988  0.22049534    -0.12100
C753        C  0.14118849  0.77995276  0.26797182    -0.10600
C754        C  0.17160860  0.77518766  0.26676239    -0.12100
C755        C  0.17569219  0.77494030  0.72740202    -0.10600
C756        C  0.14518153  0.77781516  0.72467957    -0.12100
C757        C  0.22679843  0.74872706  0.67452486    -0.10600
C758        C  0.22242145  0.74580725  0.64416386    -0.12100
C759        C  0.32063174  0.78254196  0.73275172    -0.10600
C760        C  0.35113313  0.78504300  0.72912032    -0.12100
C761        C  0.50144790  0.89416876  0.54308380    -0.10600
C762        C  0.50083135  0.92043896  0.52856075    -0.12100
C763        C  0.64562263  0.77925407  0.72871957    -0.10600
C764        C  0.67594901  0.77676454  0.73360039    -0.12100
C765        C  0.75951335  0.73763014  0.82247902    -0.10600
C766        C  0.76100270  0.73414284  0.85309149    -0.12100
C767        C  0.72556162  0.85951504  0.76359939    -0.10600
C768        C  0.72757233  0.82897734  0.76025851    -0.12100
C769        C  0.82050695  0.76960560  0.72862091    -0.10600
C770        C  0.85084022  0.77252452  0.72401145    -0.12100
C771        C  0.73120007  0.65404724  0.77597207    -0.10600
C772        C  0.73403585  0.68442029  0.77147480    -0.12100
C773        C  0.59392686  0.50145608  0.97521156    -0.10600
C774        C  0.62071725  0.50127897  0.96168334    -0.12100
C775        C  0.73422214  0.18460849  0.76144014    -0.10600
C776        C  0.73097764  0.15412972  0.76446960    -0.12100
C777        C  0.73653868  0.35964452  0.77727718    -0.10600
C778        C  0.73870445  0.32934050  0.77201737    -0.12100
C779        C  0.49332735  0.04480178  0.59387526    -0.10600
C780        C  0.49460709  0.05532202  0.62197499    -0.12100
C781        C  0.65073288  0.23032370  0.73735507    -0.10600
C782        C  0.68105225  0.23569089  0.73782970    -0.12100
C783        C  0.32680499  0.23997409  0.73665139    -0.10600
C784        C  0.35709613  0.23425133  0.73634830    -0.12100
C785        C  0.27188594  0.86524956  0.75820336    -0.10600
C786        C  0.26813034  0.83475468  0.75761436    -0.12100
C787        C  0.27373207  0.18922661  0.76106568    -0.10600
C788        C  0.27704414  0.15877105  0.76293316    -0.12100
C789        C  0.22513761  0.27759431  0.32174267    -0.10600
C790        C  0.22331509  0.28197589  0.35218186    -0.12100
C791        C  0.22962423  0.27565474  0.64584864    -0.10600
C792        C  0.23402852  0.27380321  0.67620402    -0.12100
C793        C  0.11940175  0.46459661  0.50610890    -0.10600
C794        C  0.09312367  0.47894693  0.50516306    -0.12100
C795        C  0.00001368  0.89306930  0.54064285    -0.10600
C796        C  0.00071204  0.91830805  0.52453117    -0.12100
C797        C  0.00510572  0.10993451  0.46172227    -0.10600
C798        C  0.00370860  0.13784201  0.45096597    -0.12100
C799        C  0.99775897  0.98134196  0.39518904    -0.10600
C800        C  0.99642808  0.96788950  0.36840105    -0.12100
C801        C  0.15132612  0.24738989  0.72666794    -0.10600
C802        C  0.18187227  0.25031200  0.72864625    -0.12100
C803        C  0.85647732  0.24532288  0.72582293    -0.10600
C804        C  0.82588544  0.24757183  0.72870945    -0.12100
C805        C  0.00910147  0.04738016  0.58595293    -0.10600
C806        C  0.00925472  0.06308726  0.61147732    -0.12100
C807        C  0.34869750  0.24053960  0.26888751    -0.10600
C808        C  0.31826215  0.24202878  0.26473656    -0.12100
C809        C  0.48922656  0.11277348  0.46655592    -0.10600
C810        C  0.48961826  0.14001660  0.45396991    -0.12100
C811        C  0.67322015  0.23899852  0.26332944    -0.10600
C812        C  0.64271194  0.23709593  0.26682622    -0.12100
C813        C  0.81826528  0.24448643  0.26856006    -0.10600
C814        C  0.84878915  0.24315164  0.27150566    -0.12100
C815        C  0.52612605  0.50834033  0.10077987    -0.10600
C816        C  0.54010251  0.50826048  0.12729835    -0.12100
C817        C  0.73484425  0.32945559  0.22751469    -0.10600
C818        C  0.73176523  0.35999692  0.22477908    -0.12100
C819        C  0.75841050  0.73527776  0.14857226    -0.10600
C820        C  0.75594015  0.73886761  0.17907304    -0.12100
C821        C  0.72845586  0.65546159  0.22925137    -0.10600
C822        C  0.73162253  0.68606477  0.23148710    -0.12100
C823        C  0.84700953  0.77776893  0.27106685    -0.10600
C824        C  0.81658424  0.77298657  0.27020626    -0.12100
C825        C  0.76600235  0.27631398  0.82227905    -0.10600
C826        C  0.76993006  0.27730184  0.85278792    -0.12100
C827        C  0.76041333  0.27533962  0.17684712    -0.10600
C828        C  0.76552100  0.27627924  0.14652079    -0.12100
C829        C  0.61291394  0.00080729  0.94731054    -0.10600
C830        C  0.58774105  0.99944472  0.96356079    -0.12100
C831        C  0.46060001  0.99416815  0.90665191    -0.10600
C832        C  0.44874753  0.99546158  0.87919582    -0.12100
C833        C  0.71917692  0.15449994  0.24121911    -0.10600
C834        C  0.72407083  0.18486327  0.24065165    -0.12100
C835        C  0.72240123  0.83096600  0.24132410    -0.10600
C836        C  0.71736203  0.86128095  0.24124369    -0.12100
C837        C  0.52955675  0.00879715  0.09591655    -0.10600
C838        C  0.54241670  0.00973170  0.12299171    -0.12100
C839        C  0.87597393  0.55214901  0.99894017    -0.10600
C840        C  0.90211170  0.53758813  0.99742365    -0.12100
C841        C  0.95302719  0.38206810  0.99977549    -0.10600
C842        C  0.96609634  0.40903074  0.99831617    -0.12100
C843        C  0.22545957  0.73876852  0.14434564    -0.10600
C844        C  0.23015841  0.74128891  0.17474103    -0.12100
C845        C  0.23618623  0.74211641  0.81922992    -0.10600
C846        C  0.23256813  0.73951409  0.84969681    -0.12100
C847        C  0.02902064  0.60093761  0.98845145    -0.10600
C848        C  0.04289219  0.62750136  0.98881180    -0.12100
C849        C  0.77233176  0.73619146  0.64729410    -0.10600
C850        C  0.76951977  0.74086251  0.67759090    -0.12100
C851        C  0.77042948  0.74019890  0.35363165    -0.10600
C852        C  0.76668224  0.74461616  0.32338957    -0.12100
C853        C  0.87133941  0.54401946  0.49822101    -0.10600
C854        C  0.89776152  0.52984924  0.49889785    -0.12100
C855        C  0.26735247  0.86392969  0.23193775    -0.10600
C856        C  0.26538124  0.83341232  0.23566182    -0.12100
C857        C  0.39909901  0.00419254  0.03632400    -0.10600
C858        C  0.37219353  0.00618313  0.04946798    -0.12100
C859        C  0.26660191  0.18917678  0.23951319    -0.10600
C860        C  0.26896592  0.15864049  0.23630030    -0.12100
C861        C  0.24227745  0.28091515  0.82096010    -0.10600
C862        C  0.24029373  0.28335832  0.85152639    -0.12100
C863        C  0.09364509  0.47460216  0.98905562    -0.10600
C864        C  0.12085864  0.46216047  0.99008067    -0.12100
C865        C  0.23259268  0.28301747  0.14632198    -0.10600
C866        C  0.23438308  0.28001460  0.17689874    -0.12100
C867        C  0.26722029  0.33409721  0.76871990    -0.10600
C868        C  0.27019681  0.36469760  0.77101011    -0.12100
C869        C  0.26599924  0.65959906  0.76967538    -0.10600
C870        C  0.26198673  0.69000862  0.76714278    -0.12100
C871        C  0.45393365  0.51241970  0.88085113    -0.10600
C872        C  0.46794450  0.51117964  0.90731654    -0.12100
C873        C  0.31645251  0.78158209  0.26324546    -0.10600
C874        C  0.34673771  0.78670353  0.26637853    -0.12100
C875        C  0.64114481  0.78529198  0.26834298    -0.10600
C876        C  0.67140809  0.77935569  0.26668993    -0.12100
C877        C  0.49692940  0.98640433  0.39974697    -0.10600
C878        C  0.49691133  0.97392207  0.37241440    -0.12100
C879        C  0.77718040  0.27260188  0.64644339    -0.10600
C880        C  0.77280798  0.27159024  0.67696164    -0.12100
C881        C  0.76795808  0.27146663  0.32142033    -0.10600
C882        C  0.77314600  0.27385255  0.35172534    -0.12100
C883        C  0.96040500  0.37827425  0.50614802    -0.10600
C884        C  0.97178037  0.40600038  0.50723221    -0.12100
loop_ 
_geom_bond_atom_site_label_1 
_geom_bond_atom_site_label_2 
_geom_bond_distance 
_geom_bond_site_symmetry_2 
_ccdc_geom_bond_type 
N1            N2   1.327       .  A
N1            C5   1.372       .  A
N1           Cu9   2.225       .  S
N2            C3   1.346       .  A
N2           Cu8   2.055       .  S
C3            C4   1.374       .  A
C3            H6   1.081       .  S
C4            C5   1.415       .  A
C4          C879   1.486       .  S
C5            H7   1.082       .  S
Cu8          N11   2.054       .  S
Cu9          N19   2.225       .  S
Cu10         N12   2.057       .  S
Cu10         N18   2.059       .  S
N11          N12   1.318       .  A
N11          C15   1.344       .  A
N12          C13   1.342       .  A
C13          C14   1.380       .  A
C13          H16   1.082       .  S
C14          C15   1.380       .  A
C14         C883   1.430       .  S
C15          H17   1.082       .  S
N18          N19   1.327       .  A
N18          C22   1.347       .  A
N19          C20   1.371       .  A
C20          C21   1.415       .  A
C20          H23   1.081       .  S
C21          C22   1.375       .  A
C21         C882   1.486       .  S
C22          H24   1.081       .  S
N25          N26   1.328       .  A
N25          C29   1.371       .  A
N25         Cu33   2.226       .  S
N26          C27   1.348       .  A
N26         Cu32   2.067       .  S
C27          C28   1.377       .  A
C27          H30   1.083       .  S
C28          C29   1.414       .  A
C28         C875   1.488       .  S
C29          H31   1.081       .  S
Cu32         N35   2.065       .  S
Cu33         N43   2.225       .  S
Cu34         N36   2.060       .  S
Cu34         N42   2.061       .  S
N35          N36   1.319       .  A
N35          C39   1.345       .  A
N36          C37   1.343       .  A
C37          C38   1.380       .  A
C37          H40   1.081       .  S
C38          C39   1.382       .  A
C38         C878   1.434       .  S
C39          H41   1.082       .  S
N42          N43   1.327       .  A
N42          C46   1.348       .  A
N43          C44   1.372       .  A
C44          C45   1.415       .  A
C44          H47   1.082       .  S
C45          C46   1.376       .  A
C45         C874   1.488       .  S
C46          H48   1.081       .  S
N49          N50   1.326       .  A
N49          C53   1.372       .  A
N49         Cu57   2.225       .  S
N50          C51   1.345       .  A
N50         Cu56   2.046       .  S
C51          C52   1.372       .  A
C51          H54   1.080       .  S
C52          C53   1.417       .  A
C52         C868   1.485       .  S
C53          H55   1.081       .  S
Cu56         N59   2.046       .  S
Cu57         N67   2.225       .  S
Cu58         N60   2.054       .  S
Cu58         N66   2.054       .  S
N59          N60   1.317       .  A
N59          C63   1.341       .  A
N60          C61   1.344       .  A
C61          C62   1.381       .  A
C61          H64   1.081       .  S
C62          C63   1.378       .  A
C62         C871   1.429       .  S
C63          H65   1.081       .  S
N66          N67   1.328       .  A
N66          C70   1.345       .  A
N67          C68   1.371       .  A
C68          C69   1.414       .  A
C68          H71   1.082       .  S
C69          C70   1.371       .  A
C69         C869   1.481       .  S
C70          H72   1.081       .  S
N73          N74   1.327       .  A
N73          C77   1.371       .  A
N73         Cu81   2.223   1_554  S
N74          C75   1.344       .  A
N74         Cu80   2.049       .  S
C75          C76   1.371       .  A
C75          H78   1.081       .  S
C76          C77   1.415       .  A
C76         C865   1.481       .  S
C77          H79   1.082       .  S
Cu80         N83   2.049       .  S
Cu81         N91   2.222       .  S
Cu82         N84   2.036       .  S
Cu82         N90   2.034       .  S
N83          N84   1.315   1_554  A
N83          C87   1.341       .  A
N84          C85   1.341       .  A
C85          C86   1.378       .  A
C85          H88   1.082       .  S
C86          C87   1.380   1_556  A
C86         C864   1.426       .  S
C87          H89   1.082       .  S
N90          N91   1.326       .  A
N90          C94   1.342       .  A
N91          C92   1.372       .  A
C92          C93   1.416       .  A
C92          H95   1.082       .  S
C93          C94   1.367       .  A
C93         C862   1.477       .  S
C94          H96   1.080       .  S
N97          N98   1.326       .  A
N97         C101   1.372       .  A
N97        Cu105   2.222       .  S
N98          C99   1.344       .  A
N98        Cu104   2.047       .  S
C99         C100   1.371       .  A
C99         H102   1.082       .  S
C100        C101   1.416       .  A
C100        C860   1.482       .  S
C101        H103   1.082       .  S
Cu104       N107   2.048       .  S
Cu105       N115   2.223   1_545  S
Cu106       N108   2.055       .  S
Cu106       N114   2.056       .  S
N107        N108   1.317   1_545  A
N107        C111   1.342       .  A
N108        C109   1.344       .  A
C109        C110   1.380   1_565  A
C109        H112   1.082       .  S
C110        C111   1.379       .  A
C110        C858   1.431       .  S
C111        H113   1.081       .  S
N114        N115   1.327       .  A
N114        C118   1.346       .  A
N115        C116   1.371       .  A
C116        C117   1.414       .  A
C116        H119   1.082       .  S
C117        C118   1.373       .  A
C117        C855   1.483       .  S
C118        H120   1.080       .  S
N121        N122   1.327       .  A
N121        C125   1.370       .  A
N121       Cu129   2.217       .  S
N122        C123   1.347       .  A
N122       Cu128   2.060       .  S
C123        C124   1.374       .  A
C123        H126   1.080       .  S
C124        C125   1.413       .  A
C124        C849   1.482       .  S
C125        H127   1.081       .  S
Cu128       N131   2.059       .  S
Cu129       N139   2.217       .  S
Cu130       N132   2.052       .  S
Cu130       N138   2.052       .  S
N131        N132   1.318       .  A
N131        C135   1.343       .  A
N132        C133   1.342       .  A
C133        C134   1.379       .  A
C133        H136   1.082       .  S
C134        C135   1.381       .  A
C134        C853   1.429       .  S
C135        H137   1.081       .  S
N138        N139   1.326       .  A
N138        C142   1.345       .  A
N139        C140   1.370       .  A
C140        C141   1.414       .  A
C140        H143   1.081       .  S
C141        C142   1.373       .  A
C141        C851   1.482       .  S
C142        H144   1.081       .  S
N145        N146   1.328       .  A
N145        C149   1.371       .  A
N145       Cu153   2.226   1_554  S
N146        C147   1.348       .  A
N146       Cu152   2.068       .  S
C147        C148   1.376       .  A
C147        H150   1.079       .  S
C148        C149   1.414       .  A
C148        C843   1.488       .  S
C149        H151   1.080       .  S
Cu152       N155   2.066       .  S
Cu153       N163   2.225       .  S
Cu154       N156   2.040       .  S
Cu154       N162   2.039       .  S
N155        N156   1.317   1_554  A
N155        C159   1.344       .  A
N156        C157   1.341       .  A
C157        C158   1.377       .  A
C157        H160   1.082       .  S
C158        C159   1.382   1_556  A
C158        C848   1.429       .  S
C159        H161   1.082       .  S
N162        N163   1.325       .  A
N162        C166   1.343       .  A
N163        C164   1.372       .  A
C164        C165   1.416       .  A
C164        H167   1.082       .  S
C165        C166   1.370       .  A
C165        C846   1.482       .  S
C166        H168   1.082       .  S
O169       Cu177   2.001   1_455  S
O169        C179   1.275       .  A
O170       Cu177   2.000       .  S
O170        C180   1.275       .  A
O171       Cu177   2.005   1_455  S
O171        C181   1.276       .  A
O172       Cu177   2.005       .  S
O172        C182   1.276       .  A
O173       Cu178   1.999       .  S
O173        C182   1.275   1_554  A
O174       Cu178   1.996   1_455  S
O174        C181   1.275   1_554  A
O175       Cu178   1.995       .  S
O175        C180   1.275   1_554  A
O176       Cu178   1.993   1_455  S
O176        C179   1.274   1_554  A
Cu177      Cu178   2.383   1_556  S
C179        C863   1.424       .  S
C180        C840   1.425       .  S
C181        C847   1.427       .  S
C182        C842   1.429       .  S
N183        N184   1.327       .  A
N183        C187   1.369       .  A
N183       Cu191   2.213   1_565  S
N184        C185   1.345       .  A
N184       Cu190   2.053       .  S
C185        C186   1.372       .  A
C185        H188   1.083       .  S
C186        C187   1.411       .  A
C186        C836   1.478       .  S
C187        H189   1.082       .  S
Cu190       N193   2.053       .  S
Cu191       N201   2.213       .  S
Cu192       N194   2.049       .  S
Cu192       N200   2.049       .  S
N193        N194   1.317   1_565  A
N193        C197   1.343       .  A
N194        C195   1.343       .  A
C195        C196   1.379       .  A
C195        H198   1.081       .  S
C196        C197   1.379   1_545  A
C196        C838   1.430       .  S
C197        H199   1.081       .  S
N200        N201   1.326       .  A
N200        C204   1.344       .  A
N201        C202   1.370       .  A
C202        C203   1.414       .  A
C202        H205   1.081       .  S
C203        C204   1.372       .  A
C203        C833   1.480       .  S
C204        H206   1.080       .  S
O207       Cu215   2.001   1_554  S
O207        C217   1.275       .  A
O208       Cu215   1.995       .  S
O208        C218   1.275   1_545  A
O209       Cu215   1.998   1_554  S
O209        C219   1.275       .  A
O210       Cu215   1.995       .  S
O210        C220   1.275   1_545  A
O211       Cu216   2.006   1_556  S
O211        C220   1.276       .  A
O212       Cu216   2.007       .  S
O212        C219   1.276   1_565  A
O213       Cu216   2.000   1_556  S
O213        C218   1.275       .  A
O214       Cu216   2.001       .  S
O214        C217   1.276   1_565  A
Cu215      Cu216   2.383   1_546  S
C217        C837   1.428       .  S
C218        C831   1.424       .  S
C219        C857   1.429       .  S
C220        C830   1.428       .  S
N221        N222   1.327       .  A
N221        C225   1.370       .  A
N221       Cu229   2.216   1_554  S
N222        C223   1.345       .  A
N222       Cu228   2.056       .  S
C223        C224   1.373       .  A
C223        H226   1.080       .  S
C224        C225   1.413       .  A
C224        C828   1.481       .  S
C225        H227   1.081       .  S
Cu228       N231   2.055       .  S
Cu229       N239   2.216       .  S
Cu230       N232   2.051       .  S
Cu230       N238   2.051       .  S
N231        N232   1.317   1_554  A
N231        C235   1.344       .  A
N232        C233   1.342       .  A
C233        C234   1.379   1_556  A
C233        H236   1.082       .  S
C234        C235   1.381       .  A
C234        C841   1.431   1_554  S
C235        H237   1.081       .  S
N238        N239   1.326       .  A
N238        C242   1.345       .  A
N239        C240   1.370       .  A
C240        C241   1.414       .  A
C240        H243   1.082       .  S
C241        C242   1.373       .  A
C241        C826   1.481       .  S
C242        H244   1.081       .  S
C245        H246   1.111       .  S
C245        C251   1.564       .  S
C245        C250   1.566       .  S
C245        C249   1.566       .  S
C247        H248   1.111       .  S
C247        C253   1.560       .  S
C247        C252   1.560       .  S
C247        C254   1.562       .  S
C249        C252   1.381       .  D
C249        C876   1.495       .  S
C250        C253   1.386       .  D
C250        C852   1.489       .  S
C251        C254   1.386       .  D
C251        C822   1.493       .  S
C252        C835   1.485       .  S
C253        C824   1.490       .  S
C254        C820   1.490       .  S
N255        N256   1.326       .  A
N255        C259   1.372       .  A
N255       Cu263   2.229       .  S
N256        C257   1.344       .  A
N256       Cu262   2.045       .  S
C257        C258   1.371       .  A
C257        H260   1.082       .  S
C258        C259   1.417       .  A
C258        C818   1.484       .  S
C259        H261   1.083       .  S
Cu262       N265   2.045       .  S
Cu263       N273   2.230       .  S
Cu264       N266   2.055       .  S
Cu264       N272   2.056       .  S
N265        N266   1.317       .  A
N265        C269   1.341       .  A
N266        C267   1.344       .  A
C267        C268   1.382       .  A
C267        H270   1.081       .  S
C268        C269   1.378       .  A
C268        C816   1.429       .  S
C269        H271   1.082       .  S
N272        N273   1.328       .  A
N272        C276   1.345       .  A
N273        C274   1.373       .  A
C274        C275   1.417       .  A
C274        H277   1.082       .  S
C275        C276   1.372       .  A
C275        C821   1.486       .  S
C276        H278   1.082       .  S
C279        H280   1.111       .  S
C279        C285   1.556       .  S
C279        C284   1.559       .  S
C279        C283   1.560       .  S
C281        H282   1.111       .  S
C281        C287   1.562       .  S
C281        C286   1.563       .  S
C281        C288   1.563       .  S
C283        C286   1.386       .  D
C283        C827   1.487       .  S
C284        C287   1.382       .  D
C284        C834   1.487       .  S
C285        C288   1.384       .  D
C285        C813   1.482       .  S
C286        C817   1.490       .  S
C287        C811   1.487       .  S
C288        C881   1.492       .  S
N289        N290   1.326       .  A
N289        C293   1.371       .  A
N289       Cu297   2.216       .  S
N290        C291   1.344       .  A
N290       Cu296   2.047       .  S
C291        C292   1.371       .  A
C291        H294   1.081       .  S
C292        C293   1.415       .  A
C292        C812   1.480       .  S
C293        H295   1.082       .  S
Cu296       N299   2.047       .  S
Cu297       N307   2.216       .  S
Cu298       N300   2.053       .  S
Cu298       N306   2.054       .  S
N299        N300   1.317       .  A
N299        C303   1.341       .  A
N300        C301   1.344       .  A
C301        C302   1.381       .  A
C301        H304   1.081       .  S
C302        C303   1.379       .  A
C302        C810   1.431       .  S
C303        H305   1.082       .  S
N306        N307   1.327       .  A
N306        C310   1.345       .  A
N307        C308   1.370       .  A
C308        C309   1.413       .  A
C308        H311   1.081       .  S
C309        C310   1.372       .  A
C309        C807   1.480       .  S
C310        H312   1.079       .  S
N313        N314   1.327       .  A
N313        C317   1.371       .  A
N313       Cu321   2.222       .  S
N314        C315   1.343       .  A
N314       Cu320   2.049       .  S
C315        C316   1.370       .  A
C315        H318   1.082       .  S
C316        C317   1.415       .  A
C316        C801   1.479       .  S
C317        H319   1.082       .  S
Cu320       N323   2.049       .  S
Cu321       N331   2.222   1_455  S
Cu322       N324   2.048       .  S
Cu322       N330   2.047       .  S
N323        N324   1.317   1_455  A
N323        C327   1.344       .  A
N324        C325   1.341       .  A
C325        C326   1.378   1_655  A
C325        H328   1.081       .  S
C326        C327   1.380       .  A
C326        C806   1.429       .  S
C327        H329   1.081       .  S
N330        N331   1.326       .  A
N330        C334   1.344       .  A
N331        C332   1.372       .  A
C332        C333   1.416       .  A
C332        H335   1.082       .  S
C333        C334   1.372       .  A
C333        C803   1.483       .  S
C334        H336   1.080       .  S
O337       Cu345   2.002   1_565  S
O337        C347   1.276   1_455  A
O338       Cu345   2.001       .  S
O338        C348   1.275       .  A
O339       Cu345   2.002   1_565  S
O339        C349   1.276       .  A
O340       Cu345   2.001       .  S
O340        C350   1.276       .  A
O341       Cu346   1.992       .  S
O341        C350   1.274   1_655  A
O342       Cu346   1.992   1_565  S
O342        C349   1.274   1_655  A
O343       Cu346   2.001       .  S
O343        C348   1.276   1_655  A
O344       Cu346   2.004   1_565  S
O344        C347   1.276       .  A
Cu345      Cu346   2.383   1_455  S
C347        C799   1.430       .  S
C348        C805   1.427       .  S
C349        C796   1.425       .  S
C350        C797   1.424       .  S
N351        N352   1.324       .  A
N351        C355   1.370       .  A
N351       Cu359   2.212       .  S
N352        C353   1.343       .  A
N352       Cu358   2.035       .  S
C353        C354   1.370       .  A
C353        H356   1.081       .  S
C354        C355   1.414       .  A
C354        C791   1.478       .  S
C355        H357   1.082       .  S
Cu358       N361   2.038       .  S
Cu359       N369   2.213       .  S
Cu360       N362   2.064       .  S
Cu360       N368   2.066       .  S
N361        N362   1.318       .  A
N361        C365   1.339       .  A
N362        C363   1.345       .  A
C363        C364   1.382       .  A
C363        H366   1.081       .  S
C364        C365   1.376       .  A
C364        C793   1.427       .  S
C365        H367   1.082       .  S
N368        N369   1.328       .  A
N368        C372   1.348       .  A
N369        C370   1.369       .  A
C370        C371   1.412       .  A
C370        H373   1.082       .  S
C371        C372   1.376       .  A
C371        C790   1.484       .  S
C372        H374   1.081       .  S
N375        N376   1.327       .  A
N375        C379   1.369       .  A
N375       Cu383   2.211       .  S
N376        C377   1.344       .  A
N376       Cu382   2.047       .  S
C377        C378   1.371       .  A
C377        H380   1.083       .  S
C378        C379   1.412       .  A
C378        C788   1.475       .  S
C379        H381   1.082       .  S
Cu382       N385   2.046       .  S
Cu383       N393   2.212   1_545  S
Cu384       N386   2.043       .  S
Cu384       N392   2.042       .  S
N385        N386   1.317   1_545  A
N385        C389   1.340       .  A
N386        C387   1.343       .  A
C387        C388   1.378   1_565  A
C387        H390   1.082       .  S
C388        C389   1.378       .  A
C388        C832   1.426   1_545  S
C389        H391   1.082       .  S
N392        N393   1.326       .  A
N392        C396   1.342       .  A
N393        C394   1.370       .  A
C394        C395   1.414       .  A
C394        H397   1.082       .  S
C395        C396   1.370       .  A
C395        C785   1.478       .  S
C396        H398   1.081       .  S
C399        H400   1.111       .  S
C399        C405   1.565       .  S
C399        C404   1.564       .  S
C399        C403   1.564       .  S
C401        H402   1.111       .  S
C401        C407   1.557       .  S
C401        C406   1.556       .  S
C401        C408   1.555       .  S
C403        C406   1.381       .  D
C403        C792   1.485       .  S
C404        C407   1.382       .  D
C404        C783   1.491       .  S
C405        C408   1.386       .  D
C405        C867   1.491       .  S
C406        C802   1.486       .  S
C407        C787   1.482       .  S
C408        C861   1.484       .  S
N409        N410   1.327       .  A
N409        C413   1.370       .  A
N409       Cu417   2.218       .  S
N410        C411   1.347       .  A
N410       Cu416   2.060       .  S
C411        C412   1.375       .  A
C411        H414   1.080       .  S
C412        C413   1.413       .  A
C412        C781   1.483       .  S
C413        H415   1.081       .  S
Cu416       N419   2.059       .  S
Cu417       N427   2.218       .  S
Cu418       N420   2.056       .  S
Cu418       N426   2.057       .  S
N419        N420   1.318       .  A
N419        C423   1.343       .  A
N420        C421   1.344       .  A
C421        C422   1.380       .  A
C421        H424   1.081       .  S
C422        C423   1.380       .  A
C422        C780   1.433       .  S
C423        H425   1.081       .  S
N426        N427   1.327       .  A
N426        C430   1.346       .  A
N427        C428   1.370       .  A
C428        C429   1.414       .  A
C428        H431   1.083       .  S
C429        C430   1.374       .  A
C429        C784   1.484       .  S
C430        H432   1.083       .  S
C433        H434   1.111       .  S
C433        C439   1.564       .  S
C433        C438   1.565       .  S
C433        C437   1.566       .  S
C435        H436   1.111       .  S
C435        C441   1.560       .  S
C435        C440   1.561       .  S
C435        C442   1.561       .  S
C437        C440   1.384       .  D
C437        C880   1.492       .  S
C438        C441   1.385       .  D
C438        C778   1.492       .  S
C439        C442   1.383       .  D
C439        C782   1.489       .  S
C440        C804   1.490       .  S
C441        C825   1.488       .  S
C442        C775   1.490       .  S
N443        N444   1.328       .  A
N443        C447   1.371       .  A
N443       Cu451   2.223       .  S
N444        C445   1.347       .  A
N444       Cu450   2.062       .  S
C445        C446   1.375       .  A
C445        H448   1.080       .  S
C446        C447   1.414       .  A
C446        C777   1.486       .  S
C447        H449   1.082       .  S
Cu450       N453   2.060       .  S
Cu451       N461   2.223       .  S
Cu452       N454   2.053       .  S
Cu452       N460   2.053       .  S
N453        N454   1.318       .  A
N453        C457   1.345       .  A
N454        C455   1.341       .  A
C455        C456   1.378       .  A
C455        H458   1.082       .  S
C456        C457   1.381       .  A
C456        C774   1.431       .  S
C457        H459   1.081       .  S
N460        N461   1.326       .  A
N460        C464   1.346       .  A
N461        C462   1.371       .  A
C462        C463   1.415       .  A
C462        H465   1.082       .  S
C463        C464   1.374       .  A
C463        C771   1.485       .  S
C464        H466   1.082       .  S
C467        H468   1.111       .  S
C467        C473   1.564       .  S
C467        C472   1.563       .  S
C467        C471   1.563       .  S
C469        H470   1.111       .  S
C469        C475   1.561       .  S
C469        C474   1.562       .  S
C469        C476   1.562       .  S
C471        C474   1.385       .  D
C471        C768   1.488       .  S
C472        C475   1.384       .  D
C472        C769   1.491       .  S
C473        C476   1.386       .  D
C473        C765   1.492       .  S
C474        C764   1.490       .  S
C475        C850   1.489       .  S
C476        C772   1.492       .  S
N477        N478   1.328       .  A
N477        C481   1.371       .  A
N477       Cu485   2.223       .  S
N478        C479   1.347       .  A
N478       Cu484   2.061       .  S
C479        C480   1.374       .  A
C479        H482   1.080       .  S
C480        C481   1.414       .  A
C480        C763   1.484       .  S
C481        H483   1.082       .  S
Cu484       N487   2.060       .  S
Cu485       N495   2.222       .  S
Cu486       N488   2.049       .  S
Cu486       N494   2.049       .  S
N487        N488   1.318       .  A
N487        C491   1.345       .  A
N488        C489   1.341       .  A
C489        C490   1.378       .  A
C489        H492   1.082       .  S
C490        C491   1.382       .  A
C490        C761   1.431       .  S
C491        H493   1.082       .  S
N494        N495   1.326       .  A
N494        C498   1.345       .  A
N495        C496   1.372       .  A
C496        C497   1.416       .  A
C496        H499   1.082       .  S
C497        C498   1.373       .  A
C497        C760   1.484       .  S
C498        H500   1.081       .  S
C501        H502   1.111       .  S
C501        C507   1.561       .  S
C501        C506   1.559       .  S
C501        C505   1.559       .  S
C503        H504   1.111       .  S
C503        C509   1.561       .  S
C503        C508   1.562       .  S
C503        C510   1.561       .  S
C505        C508   1.385       .  D
C505        C755   1.487       .  S
C506        C509   1.384       .  D
C506        C786   1.485       .  S
C507        C510   1.384       .  D
C507        C845   1.489       .  S
C508        C757   1.491       .  S
C509        C759   1.491       .  S
C510        C870   1.487       .  S
N511        N512   1.327       .  A
N511        C515   1.371       .  A
N511       Cu519   2.221   1_455  S
N512        C513   1.346       .  A
N512       Cu518   2.058       .  S
C513        C514   1.374       .  A
C513        H516   1.080       .  S
C514        C515   1.414       .  A
C514        C753   1.484       .  S
C515        H517   1.081       .  S
Cu518       N521   2.057       .  S
Cu519       N529   2.221       .  S
Cu520       N522   2.054       .  S
Cu520       N528   2.055       .  S
N521        N522   1.318   1_455  A
N521        C525   1.344       .  A
N522        C523   1.343       .  A
C523        C524   1.380       .  A
C523        H526   1.080       .  S
C524        C525   1.381   1_655  A
C524        C800   1.432       .  S
C525        H527   1.080       .  S
N528        N529   1.326       .  A
N528        C532   1.346       .  A
N529        C530   1.371       .  A
C530        C531   1.415       .  A
C530        H533   1.081       .  S
C531        C532   1.374       .  A
C531        C823   1.484       .  S
C532        H534   1.080       .  S
C535        H536   1.111       .  S
C535        C541   1.568       .  S
C535        C540   1.566       .  S
C535        C539   1.566       .  S
C537        H538   1.111       .  S
C537        C543   1.562       .  S
C537        C542   1.560       .  S
C537        C544   1.561       .  S
C539        C542   1.385       .  D
C539        C749   1.492       .  S
C540        C543   1.385       .  D
C540        C873   1.495       .  S
C541        C544   1.386       .  D
C541        C751   1.491       .  S
C542        C754   1.490       .  S
C543        C856   1.490       .  S
C544        C844   1.494       .  S
N545        N546   1.326       .  A
N545        C549   1.371       .  A
N545       Cu553   2.222       .  S
N546        C547   1.346       .  A
N546       Cu552   2.054       .  S
C547        C548   1.374       .  A
C547        H550   1.081       .  S
C548        C549   1.415       .  A
C548        C745   1.484       .  S
C549        H551   1.082       .  S
Cu552       N555   2.053       .  S
Cu553       N563   2.222       .  S
Cu554       N556   2.057       .  S
Cu554       N562   2.059       .  S
N555        N556   1.318       .  A
N555        C559   1.342       .  A
N556        C557   1.344       .  A
C557        C558   1.381       .  A
C557        H560   1.081       .  S
C558        C559   1.379       .  A
C558        C747   1.431       .  S
C559        H561   1.081       .  S
N562        N563   1.327       .  A
N562        C566   1.347       .  A
N563        C564   1.371       .  A
C564        C565   1.414       .  A
C564        H567   1.081       .  S
C565        C566   1.375       .  A
C565        C752   1.485       .  S
C566        H568   1.080       .  S
N569        N570   1.326       .  A
N569        C573   1.371       .  A
N569       Cu577   2.221       .  S
N570        C571   1.345       .  A
N570       Cu576   2.050       .  S
C571        C572   1.373       .  A
C571        H574   1.083       .  S
C572        C573   1.415       .  A
C572        C758   1.484       .  S
C573        H575   1.083       .  S
Cu576       N579   2.051       .  S
Cu577       N587   2.222       .  S
Cu578       N580   2.062       .  S
Cu578       N586   2.064       .  S
N579        N580   1.318       .  A
N579        C583   1.341       .  A
N580        C581   1.345       .  A
C581        C582   1.381       .  A
C581        H584   1.082       .  S
C582        C583   1.378       .  A
C582        C744   1.431       .  S
C583        H585   1.082       .  S
N586        N587   1.328       .  A
N586        C590   1.348       .  A
N587        C588   1.371       .  A
C588        C589   1.414       .  A
C588        H591   1.082       .  S
C589        C590   1.376       .  A
C589        C750   1.486       .  S
C590        H592   1.081       .  S
N593        N594   1.325       .  A
N593        C597   1.371       .  A
N593       Cu601   2.220   1_455  S
N594        C595   1.344       .  A
N594       Cu600   2.038       .  S
C595        C596   1.371       .  A
C595        H598   1.083       .  S
C596        C597   1.415       .  A
C596        C756   1.480       .  S
C597        H599   1.082       .  S
Cu600       N603   2.039       .  S
Cu601       N611   2.221       .  S
Cu602       N604   2.060       .  S
Cu602       N610   2.062       .  S
N603        N604   1.317   1_455  A
N603        C607   1.340       .  A
N604        C605   1.344       .  A
C605        C606   1.381   1_655  A
C605        H608   1.082       .  S
C606        C607   1.376       .  A
C606        C795   1.427       .  S
C607        H609   1.083       .  S
N610        N611   1.328       .  A
N610        C614   1.347       .  A
N611        C612   1.371       .  A
C612        C613   1.414       .  A
C612        H615   1.081       .  S
C613        C614   1.375       .  A
C613        C770   1.484       .  S
C614        H616   1.081       .  S
N617        N618   1.327       .  A
N617        C621   1.371       .  A
N617       Cu625   2.221       .  S
N618        C619   1.345       .  A
N618       Cu624   2.053       .  S
C619        C620   1.372       .  A
C619        H622   1.082       .  S
C620        C621   1.415       .  A
C620        C776   1.483       .  S
C621        H623   1.083       .  S
Cu624       N627   2.053       .  S
Cu625       N635   2.221   1_545  S
Cu626       N628   2.049       .  S
Cu626       N634   2.049       .  S
N627        N628   1.317   1_545  A
N627        C631   1.342       .  A
N628        C629   1.343       .  A
C629        C630   1.379   1_565  A
C629        H632   1.082       .  S
C630        C631   1.380       .  A
C630        C829   1.430       .  S
C631        H633   1.082       .  S
N634        N635   1.326       .  A
N634        C638   1.345       .  A
N635        C636   1.371       .  A
C636        C637   1.415       .  A
C636        H639   1.082       .  S
C637        C638   1.372       .  A
C637        C767   1.482       .  S
C638        H640   1.080       .  S
N641        N642   1.326       .  A
N641        C645   1.371       .  A
N641       Cu649   2.217   1_455  S
N642        C643   1.343       .  A
N642       Cu648   2.045       .  S
C643        C644   1.370       .  A
C643        H646   1.081       .  S
C644        C645   1.414       .  A
C644        C741   1.479       .  S
C645        H647   1.082       .  S
Cu648       N651   2.045       .  S
Cu649       N659   2.216       .  S
Cu650       N652   2.040       .  S
Cu650       N658   2.040       .  S
N651        N652   1.316   1_455  A
N651        C655   1.342       .  A
N652        C653   1.341       .  A
C653        C654   1.378   1_655  A
C653        H656   1.081       .  S
C654        C655   1.379       .  A
C654        C798   1.426       .  S
C655        H657   1.081       .  S
N658        N659   1.326       .  A
N658        C662   1.342       .  A
N659        C660   1.370       .  A
C660        C661   1.414       .  A
C660        H663   1.082       .  S
C661        C662   1.368       .  A
C661        C814   1.475       .  S
C662        H664   1.082       .  S
C665        H666   1.111       .  S
C665        C671   1.560       .  S
C665        C670   1.561       .  S
C665        C669   1.561       .  S
C667        H668   1.111       .  S
C667        C673   1.561       .  S
C667        C672   1.561       .  S
C667        C674   1.560       .  S
C669        C672   1.385       .  D
C669        C746   1.491       .  S
C670        C673   1.384       .  D
C670        C808   1.486       .  S
C671        C674   1.385       .  D
C671        C789   1.490       .  S
C672        C866   1.488       .  S
C673        C859   1.489       .  S
C674        C742   1.486       .  S
N675        N676   1.327       .  A
N675        C679   1.372       .  A
N675       Cu683   2.230       .  S
N676        C677   1.345       .  A
N676       Cu682   2.048       .  S
C677        C678   1.371       .  A
C677        H680   1.081       .  S
C678        C679   1.416       .  A
C678        C819   1.484       .  S
C679        H681   1.082       .  S
Cu682       N685   2.048       .  S
Cu683       N693   2.230   1_554  S
Cu684       N686   2.049       .  S
Cu684       N692   2.049       .  S
N685        N686   1.317   1_554  A
N685        C689   1.342       .  A
N686        C687   1.342       .  A
C687        C688   1.379   1_556  A
C687        H690   1.081       .  S
C688        C689   1.379       .  A
C688        C839   1.427   1_554  S
C689        H691   1.081       .  S
N692        N693   1.327       .  A
N692        C696   1.345       .  A
N693        C694   1.373       .  A
C694        C695   1.417       .  A
C694        H697   1.082       .  S
C695        C696   1.372       .  A
C695        C766   1.486       .  S
C696        H698   1.083       .  S
O699       Cu707   2.004   1_556  S
O699        C709   1.276       .  A
O700       Cu707   2.006       .  S
O700        C710   1.276       .  A
O701       Cu707   1.996       .  S
O701        C711   1.274       .  A
O702       Cu707   1.995   1_556  S
O702        C712   1.274       .  A
O703       Cu708   2.005   1_556  S
O703        C712   1.276       .  A
O704       Cu708   2.005       .  S
O704        C711   1.276       .  A
O705       Cu708   2.000       .  S
O705        C710   1.275       .  A
O706       Cu708   2.002   1_556  S
O706        C709   1.275       .  A
Cu707      Cu708   2.382       .  S
C709        C773   1.429       .  S
C710        C748   1.429       .  S
C711        C815   1.427       .  S
C712        C872   1.427       .  S
O713       Cu721   2.008       .  S
O713        C723   1.276   1_545  A
O714       Cu721   2.008       .  S
O714        C724   1.276       .  A
O715       Cu721   2.005       .  S
O715        C725   1.276       .  A
O716       Cu721   2.004   1_565  S
O716        C726   1.276       .  A
O717       Cu722   2.002   1_565  S
O717        C726   1.275       .  A
O718       Cu722   2.000       .  S
O718        C725   1.275       .  A
O719       Cu722   2.003       .  S
O719        C724   1.276       .  A
O720       Cu722   2.006       .  S
O720        C723   1.276   1_545  A
Cu721      Cu722   2.382       .  S
C723        C877   1.433       .  S
C724        C779   1.431       .  S
C725        C809   1.429       .  S
C726        C762   1.429       .  S
O727       Cu735   1.999       .  S
O727        C737   1.275       .  A
O728       Cu735   2.001   1_455  S
O728        C738   1.275       .  A
O729       Cu735   1.997   1_455  S
O729        C739   1.275       .  A
O730       Cu735   2.001       .  S
O730        C740   1.275       .  A
O731       Cu736   2.000       .  S
O731        C740   1.275       .  A
O732       Cu736   1.999   1_455  S
O732        C739   1.275       .  A
O733       Cu736   2.003   1_455  S
O733        C738   1.276       .  A
O734       Cu736   2.005       .  S
O734        C737   1.276       .  A
Cu735      Cu736   2.383       .  S
C737        C884   1.428       .  S
C738        C743   1.428       .  S
C739        C794   1.425       .  S
C740        C854   1.427       .  S
C741        C742   1.232       .  T
C743        C744   1.202       .  T
C745        C746   1.235       .  T
C747        C748   1.202       .  T
C749        C750   1.236       .  T
C751        C752   1.235       .  T
C753        C754   1.234       .  T
C755        C756   1.233       .  T
C757        C758   1.235       .  T
C759        C760   1.235       .  T
C761        C762   1.202       .  T
C763        C764   1.235       .  T
C765        C766   1.236       .  T
C767        C768   1.233       .  T
C769        C770   1.235       .  T
C771        C772   1.235       .  T
C773        C774   1.202       .  T
C775        C776   1.234       .  T
C777        C778   1.235       .  T
C779        C780   1.204       .  T
C781        C782   1.234       .  T
C783        C784   1.235       .  T
C785        C786   1.231       .  T
C787        C788   1.229       .  T
C789        C790   1.234       .  T
C791        C792   1.231       .  T
C793        C794   1.200       .  T
C795        C796   1.200       .  T
C797        C798   1.199       .  T
C799        C800   1.203       .  T
C801        C802   1.232       .  T
C803        C804   1.234       .  T
C805        C806   1.201       .  T
C807        C808   1.232       .  T
C809        C810   1.202       .  T
C811        C812   1.233       .  T
C813        C814   1.230       .  T
C815        C816   1.201       .  T
C817        C818   1.234       .  T
C819        C820   1.234       .  T
C821        C822   1.236       .  T
C823        C824   1.235       .  T
C825        C826   1.233       .  T
C827        C828   1.233       .  T
C829        C830   1.201   1_545  T
C831        C832   1.199       .  T
C833        C834   1.232       .  T
C835        C836   1.231       .  T
C837        C838   1.202       .  T
C839        C840   1.200       .  T
C841        C842   1.202       .  T
C843        C844   1.237       .  T
C845        C846   1.234       .  T
C847        C848   1.201       .  T
C849        C850   1.233       .  T
C851        C852   1.234       .  T
C853        C854   1.201       .  T
C855        C856   1.234       .  T
C857        C858   1.202       .  T
C859        C860   1.234       .  T
C861        C862   1.231       .  T
C863        C864   1.199       .  T
C865        C866   1.233       .  T
C867        C868   1.235       .  T
C869        C870   1.233       .  T
C871        C872   1.201       .  T
C873        C874   1.237       .  T
C875        C876   1.237       .  T
C877        C878   1.204       .  T
C879        C880   1.236       .  T
C881        C882   1.236       .  T
C883        C884   1.202       .  T
