geometry optimzed in LAMMPS
_audit_creation_date              2020-11-30 
_audit_creation_method            'lammps2cif' 
_symmetry_space_group_name_H-M    'P1' 
_symmetry_Int_Tables_number       1 
_symmetry_cell_setting            triclinic 
loop_ 
_symmetry_equiv_pos_as_xyz 
  x,y,z 
_cell_length_a                    52.22857331 
_cell_length_b                    51.08160040603176 
_cell_length_c                    40.431290633089205 
_cell_angle_alpha                 90.4810526580814 
_cell_angle_beta                  90.1269659073988 
_cell_angle_gamma                 89.91800614488004 
loop_ 
_atom_site_label 
_atom_site_type_symbol 
_atom_site_fract_x 
_atom_site_fract_y 
_atom_site_fract_z 
_atom_site_charge 
O1          O  0.26353942  0.20620806  0.40378166    -0.80000
O2          O  0.25953328  0.20253177  0.59368541    -0.81600
O3          O  0.30560305  0.17610847  0.49542970    -0.78600
O4          O  0.22151946  0.17311888  0.49736547    -0.77000
O5          O  0.19071990  0.20455661  0.49854725    -0.78800
O6          O  0.33547342  0.20869826  0.49571973    -0.79700
O7          O  0.26170785  0.17277955  0.55126797    -0.81100
O8          O  0.26518989  0.17457454  0.44363920    -0.81300
Eu9        Eu  0.26288680  0.19590925  0.49834527     2.39200
O10         O  0.23634614  0.22156276  0.53255806    -0.88900
O11         O  0.28791170  0.22372132  0.46588720    -0.92500
C12         C  0.26493951  0.18209341  0.41322743     1.02200
C13         C  0.26022823  0.17864167  0.58228460     1.02100
C14         C  0.32887047  0.18445088  0.49396110     1.02000
C15         C  0.19787844  0.18053170  0.49780375     0.99900
H16         H  0.29861673  0.21111411  0.54725369     0.29600
O17         O  0.28761588  0.22224619  0.53425776    -1.01200
H18         H  0.22642090  0.21073670  0.45039762     0.29600
O19         O  0.23671626  0.22193012  0.46440253    -1.03800
O20         O  0.26093677  0.29183041  0.59712386    -0.81000
O21         O  0.26222458  0.29410018  0.40691534    -0.80500
O22         O  0.33374192  0.24885533  0.55502064    -0.79000
O23         O  0.18760029  0.24620237  0.55149122    -0.82300
O24         O  0.18938604  0.24566156  0.44382906    -0.80200
O25         O  0.33417986  0.25101650  0.44779526    -0.78800
O26         O  0.30091420  0.32457557  0.50122392    -0.80300
O27         O  0.21706246  0.32227295  0.50106083    -0.82300
O28         O  0.33247069  0.29360960  0.50146362    -0.79000
O29         O  0.18746837  0.28946482  0.49887270    -0.81700
O30         O  0.30392900  0.24668779  0.59625976    -0.77400
O31         O  0.30491774  0.24952729  0.40563271    -0.77500
O32         O  0.21988205  0.24856551  0.40335299    -0.77100
O33         O  0.21672274  0.24677005  0.59386679    -0.80600
O34         O  0.25963502  0.32283830  0.55646595    -0.80000
O35         O  0.26044199  0.32439700  0.44877000    -0.78300
Eu36       Eu  0.26076986  0.24764849  0.56938517     2.39800
Eu37       Eu  0.26199498  0.24970617  0.43151055     2.39600
Eu38       Eu  0.31245040  0.25024764  0.50123035     2.38400
Eu39       Eu  0.21029161  0.24763175  0.49864350     2.39900
Eu40       Eu  0.25977021  0.30161250  0.50187838     2.39800
O41         O  0.23506731  0.27542972  0.46575579    -0.92800
O42         O  0.28590610  0.27546566  0.53592564    -0.91700
C43         C  0.26014621  0.31593790  0.58709741     1.02400
C44         C  0.26148251  0.31798879  0.41784421     1.01100
C45         C  0.32738208  0.24700083  0.58567333     1.00500
C46         C  0.19342873  0.24625899  0.58252487     1.02500
C47         C  0.19645035  0.24650603  0.41324464     1.01400
C48         C  0.32811538  0.25022851  0.41687808     1.00300
C49         C  0.32462012  0.31756014  0.50092986     1.00400
C50         C  0.19378990  0.31382547  0.49939290     1.03000
H51         H  0.29721342  0.28761438  0.45432920     0.30300
O52         O  0.28651319  0.27632227  0.46741922    -1.04900
H53         H  0.22347137  0.28453852  0.54831522     0.32400
O54         O  0.23473206  0.27395276  0.53478813    -1.07500
N55         N  0.04972791  0.99760491  0.48042984    -0.36500
N56         N  0.50932111  0.45867628  0.47958126    -0.57100
N57         N  0.47161160  0.99967990  0.48130078    -0.36500
N58         N  0.51199734  0.03881922  0.48453013    -0.57100
C59         C  0.06325285  0.47569355  0.48712048     0.27100
C60         C  0.06475432  0.01822099  0.48849157     0.27100
C61         C  0.45698474  0.47867819  0.48851982     0.27100
C62         C  0.45834518  0.02114506  0.49072215     0.27100
C63         C  0.02957005  0.44298564  0.47359400     0.35700
C64         C  0.48825193  0.44424200  0.47326243     0.35700
C65         C  0.03300727  0.05363254  0.47953607     0.35700
C66         C  0.49161660  0.05461236  0.47977133     0.35700
C67         C  0.08727447  0.48247757  0.49912272    -0.21800
C68         C  0.08823539  0.00934528  0.49992543    -0.21800
C69         C  0.43414257  0.48689328  0.50266094    -0.21800
C70         C  0.43497828  0.01378675  0.50395585    -0.21800
C71         C  0.02139680  0.41842900  0.46331465    -0.22900
C72         C  0.49510946  0.41926624  0.46292499    -0.22900
C73         C  0.02598394  0.07905337  0.47193964    -0.22900
C74         C  0.49968252  0.07965460  0.47194082    -0.22900
C75         C  0.05509126  0.44978464  0.48079440    -0.18200
C76         C  0.05837804  0.04480280  0.48392708    -0.18200
C77         C  0.46598087  0.04718839  0.48524403    -0.18200
C78         C  0.46316593  0.45245787  0.48075723    -0.18200
H79         H  0.10265732  0.46943763  0.50619452     0.14700
H80         H  0.10446114  0.02100859  0.50780599     0.14700
H81         H  0.41839180  0.47480538  0.51077543     0.14700
H82         H  0.41998880  0.02649286  0.51327921     0.14700
H83         H  0.03313627  0.40151990  0.45758573     0.13000
H84         H  0.48249664  0.40309818  0.45696658     0.13000
H85         H  0.03849390  0.09547039  0.46721443     0.13000
H86         H  0.48786940  0.09667807  0.46737670     0.13000
H87         H  0.03247394  0.99845236  0.46765021     0.26200
H88         H  0.48815871  0.99961005  0.46704238     0.26200
O89         O  0.48826471  0.45394462  0.90708035    -0.80000
O90         O  0.48716320  0.45500090  0.09713924    -0.81600
O91         O  0.03046653  0.42717583  0.00003468    -0.78600
O92         O  0.44608299  0.42327397  0.00421194    -0.77000
O93         O  0.41429041  0.45393388  0.00469858    -0.78800
O94         O  0.05999545  0.45988346  0.99987556    -0.79700
O95         O  0.48998279  0.42445478  0.05536080    -0.81100
O96         O  0.49062788  0.42350582  0.94828047    -0.81300
Eu97       Eu  0.48742026  0.44623039  0.00193964     2.39200
O98         O  0.46112214  0.47166410  0.03676459    -0.88900
O99         O  0.01205735  0.47344933  0.96830111    -0.92500
C100        C  0.49069808  0.43011910  0.91753755     1.02200
C101        C  0.48927797  0.43119139  0.08612749     1.02100
C102        C  0.05374309  0.43559395  0.99924845     1.02000
C103        C  0.42227754  0.43011316  0.00533951     0.99900
H104        H  0.02354031  0.46305312  0.04919190     0.29600
O105        O  0.01221626  0.47378679  0.03604870    -1.01200
H106        H  0.44984578  0.45946081  0.95446209     0.29600
O107        O  0.46025549  0.47095570  0.96786176    -1.03800
O108        O  0.48392072  0.04367600  0.09734119    -0.81000
O109        O  0.48336616  0.04190238  0.90731773    -0.80500
O110        O  0.05836099  0.49969430  0.05584414    -0.79000
O111        O  0.41333160  0.49667841  0.05726044    -0.82300
O112        O  0.41263411  0.49640553  0.94903455    -0.80200
O113        O  0.05785647  0.50162732  0.94755871    -0.78800
O114        O  0.02508732  0.07474669  0.00425475    -0.80300
O115        O  0.44192508  0.07161389  0.00143013    -0.82300
O116        O  0.05697676  0.04410663  0.00476156    -0.79000
O117        O  0.41215099  0.03900510  0.00215631    -0.81700
O118        O  0.02908091  0.49925194  0.09790414    -0.77400
O119        O  0.02760000  0.99845479  0.90657652    -0.77500
O120        O  0.44263160  0.99809282  0.90777340    -0.77100
O121        O  0.44322652  0.49742377  0.09872870    -0.80600
O122        O  0.48214073  0.07413849  0.05618281    -0.80000
O123        O  0.48243379  0.07282141  0.94859797    -0.78300
Eu124      Eu  0.48591042  0.49915344  0.07150373     2.39800
Eu125      Eu  0.48534681  0.49819444  0.93376828     2.39600
Eu126      Eu  0.03683581  0.50107628  0.00204237     2.38400
Eu127      Eu  0.43440376  0.49690402  0.00292026     2.39900
Eu128      Eu  0.48412789  0.05138712  0.00264106     2.39800
O129        O  0.45921643  0.02376015  0.96890660    -0.92800
O130        O  0.01079790  0.02647144  0.03714371    -0.91700
C131        C  0.48254754  0.06760178  0.08693873     1.02400
C132        C  0.48210938  0.06590911  0.91783440     1.01100
C133        C  0.05233739  0.49883639  0.08672302     1.00500
C134        C  0.41979892  0.49722125  0.08809811     1.02500
C135        C  0.41932352  0.99744504  0.91836264     1.01400
C136        C  0.05098703  0.00008927  0.91687006     1.00300
C137        C  0.04883387  0.06789967  0.00546706     1.00400
C138        C  0.41867485  0.06328764  0.00137301     1.03000
H139        H  0.02086910  0.03761421  0.95416470     0.30300
O140        O  0.01049926  0.02624657  0.96764410    -1.04900
H141        H  0.44805980  0.03515918  0.05033759     0.32400
O142        O  0.45924950  0.02445108  0.03691744    -1.07500
N143        N  0.27457955  0.24726044  0.00460070    -0.36500
N144        N  0.23435912  0.20813074  0.00212330    -0.57100
N145        N  0.19667387  0.24968371  0.00159752    -0.36500
N146        N  0.23692330  0.28875417  0.00088173    -0.57100
C147        C  0.28847816  0.22531996  0.99930393     0.27100
C148        C  0.28990140  0.26779687  0.99778977     0.27100
C149        C  0.18183435  0.22882533  0.99394496     0.27100
C150        C  0.18298058  0.27138075  0.99453055     0.27100
C151        C  0.25435804  0.19251630  0.00954946     0.35700
C152        C  0.21309749  0.19373453  0.00699292     0.35700
C153        C  0.25804251  0.30360678  0.00521689     0.35700
C154        C  0.21666624  0.30488208  0.00490993     0.35700
C155        C  0.31301716  0.23199334  0.98937731    -0.21800
C156        C  0.31390074  0.25881978  0.98839297    -0.21800
C157        C  0.15841592  0.23736309  0.98189431    -0.21800
C158        C  0.15909007  0.26426298  0.98241547    -0.21800
C159        C  0.24582905  0.16795101  0.01872068    -0.22900
C160        C  0.21959229  0.16876414  0.01726395    -0.22900
C161        C  0.25121488  0.32942311  0.01128232    -0.22900
C162        C  0.22493786  0.33022736  0.01116613    -0.22900
C163        C  0.28019246  0.19956429  0.00556084    -0.18200
C164        C  0.28338786  0.29442571  0.00190168    -0.18200
C165        C  0.19087967  0.29738086  0.00071344    -0.18200
C166        C  0.18802779  0.20242654  0.00030102    -0.18200
H167        H  0.32882686  0.21895312  0.98391925     0.14700
H168        H  0.33046700  0.27039367  0.98192630     0.14700
H169        H  0.14233104  0.22544175  0.97414387     0.14700
H170        H  0.14363845  0.27710395  0.97502914     0.14700
H171        H  0.25730747  0.15115131  0.02543910     0.13000
H172        H  0.20679601  0.15272510  0.02269603     0.13000
H173        H  0.26383995  0.34596693  0.01508405     0.13000
H174        H  0.21327309  0.34754366  0.01477588     0.13000
H175        H  0.25686440  0.24817781  0.01612937     0.26200
H176        H  0.21366492  0.24924293  0.01495889     0.26200
C177        C  0.03527299  0.24838765  0.27169867     0.86600
C178        C  0.03019037  0.22525329  0.24765999    -0.53700
C179        C  0.50744925  0.22666734  0.23112035     0.09500
C180        C  0.49145093  0.25107542  0.23990960     0.20400
C181        C  0.03216648  0.27290599  0.25036406    -0.54400
C182        C  0.50929659  0.27468956  0.23396195     0.09600
C183        C  0.51147180  0.24806890  0.29415374    -0.53900
C184        C  0.48848863  0.24997666  0.27786143     0.10200
H185        H  0.04234724  0.20817928  0.24499944     0.14700
H186        H  0.47306086  0.25177985  0.22617267     0.00400
H187        H  0.04700925  0.28767594  0.24840621     0.15000
H188        H  0.51273996  0.24629240  0.32083379     0.14800
C189        C  0.21327718  0.49798272  0.22932748     0.86600
C190        C  0.21585197  0.47576436  0.25496926    -0.53700
C191        C  0.23799983  0.47610800  0.27298441     0.09500
C192        C  0.25604585  0.49873494  0.26359338     0.20400
C193        C  0.21765056  0.02332559  0.24934822    -0.54400
C194        C  0.23992990  0.02394194  0.26701446     0.09600
C195        C  0.23764874  0.49462100  0.20826878    -0.53900
C196        C  0.25993141  0.49527194  0.22612182     0.10200
H197        H  0.20283609  0.45947517  0.25728529     0.14700
H198        H  0.27422657  0.49921177  0.27790109     0.00400
H199        H  0.20430332  0.03965579  0.24921279     0.15000
H200        H  0.23737586  0.49245748  0.18152854     0.14800
C201        C  0.03345210  0.24336289  0.72863249     0.86600
C202        C  0.03191449  0.26774907  0.75102465    -0.53700
C203        C  0.51031852  0.26965088  0.76998634     0.09500
C204        C  0.49180168  0.24628282  0.76485985     0.20400
C205        C  0.02984131  0.22020897  0.75255919    -0.54400
C206        C  0.50817302  0.22164860  0.77146428     0.09600
C207        C  0.50830803  0.24325595  0.70864024    -0.53900
C208        C  0.48667131  0.24534366  0.72733589     0.10200
H209        H  0.04680610  0.28257308  0.75148157     0.14700
H210        H  0.47398455  0.24749658  0.77971700     0.00400
H211        H  0.04210952  0.20315447  0.75366845     0.15000
H212        H  0.50762167  0.24164694  0.68185460     0.14800
C213        C  0.21220145  0.49939854  0.77703951     0.86600
C214        C  0.21480476  0.02345211  0.75481484    -0.53700
C215        C  0.23667462  0.02419374  0.73647777     0.09500
C216        C  0.25454055  0.50042769  0.74221248     0.20400
C217        C  0.21580970  0.47564941  0.75400663    -0.54400
C218        C  0.23784780  0.47571949  0.73574863     0.09600
C219        C  0.23714837  0.50011531  0.79794737    -0.53900
C220        C  0.25930142  0.50045553  0.77990443     0.10200
H221        H  0.20053836  0.03892731  0.75389598     0.14700
H222        H  0.27236415  0.50134559  0.72749315     0.00400
H223        H  0.20213583  0.45965889  0.75286784     0.15000
H224        H  0.23794804  0.50088755  0.82463998     0.14800
C225        C  0.07414379  0.49738079  0.11035042    -0.11900
C226        C  0.09626193  0.48251440  0.10274232     0.03600
C227        C  0.11812420  0.48441699  0.12261477    -0.12400
C228        C  0.11829961  0.50025184  0.15099242     0.18400
C229        C  0.09580725  0.01379346  0.15993973    -0.09500
C230        C  0.07400713  0.01235572  0.13960075    -0.02400
H231        H  0.13494933  0.47300312  0.11629404     0.05000
C232        C  0.14165733  0.50067350  0.17190323     0.20400
H233        H  0.05715495  0.02340743  0.14630995     0.10100
C234        C  0.16174778  0.01782280  0.16467645    -0.15800
C235        C  0.18465816  0.01743200  0.18299882     0.03100
C236        C  0.18819974  0.49901865  0.20892057    -0.11100
C237        C  0.16730497  0.48243103  0.21623944    -0.01100
C238        C  0.14455504  0.48304064  0.19798407    -0.06300
H239        H  0.15958238  0.03161767  0.14464551     0.06200
H240        H  0.16774681  0.46900537  0.23653653     0.09500
Br241      Br  0.09406502  0.03439822  0.19968802    -0.06000
Br242      Br  0.09715318  0.45745106  0.06728062    -0.03000
Br243      Br  0.20988529  0.04315592  0.17139720    -0.00100
Br244      Br  0.11776513  0.45912652  0.20948427    -0.04500
C245        C  0.39849319  0.49821241  0.11254329    -0.11900
C246        C  0.37654372  0.01377008  0.10672502     0.03600
C247        C  0.35595771  0.01331791  0.12871378    -0.12400
C248        C  0.35652160  0.49771947  0.15696876     0.18400
C249        C  0.37849690  0.48250513  0.16342197    -0.09500
C250        C  0.39935863  0.48297246  0.14141380    -0.02400
H251        H  0.33915708  0.02507075  0.12350609     0.05000
C252        C  0.33317735  0.49645269  0.17781032     0.20400
H253        H  0.41597302  0.47091311  0.14643572     0.10100
C254        C  0.31837690  0.47351722  0.17725245    -0.15800
C255        C  0.29461781  0.47257624  0.19321684     0.03100
C256        C  0.28549129  0.49473751  0.21048861    -0.11100
C257        C  0.30058937  0.01734287  0.21194683    -0.01100
C258        C  0.32407539  0.01848291  0.19540829    -0.06300
H259        H  0.32499040  0.45653881  0.16347132     0.06200
H260        H  0.29367127  0.03449598  0.22513730     0.09500
Br261      Br  0.38065625  0.46103339  0.20206587    -0.06000
Br262      Br  0.37361998  0.03706236  0.06987091    -0.03000
Br263      Br  0.27535372  0.44068146  0.19074520    -0.00100
Br264      Br  0.34267594  0.05081116  0.19713464    -0.04500
C265        C  0.49132971  0.40952130  0.10991685    -0.11900
C266        C  0.01245126  0.39232651  0.10888719     0.03600
C267        C  0.01252848  0.36961500  0.12802085    -0.12400
C268        C  0.49191689  0.36383970  0.14887211     0.18400
C269        C  0.47123816  0.38155733  0.15092875    -0.09500
C270        C  0.47095835  0.40411630  0.13132968    -0.02400
H271        H  0.02898730  0.35668878  0.12718786     0.05000
C272        C  0.49381811  0.34079671  0.17084095     0.20400
H273        H  0.45457347  0.41713152  0.13226955     0.10100
C274        C  0.00207619  0.34476100  0.20339712    -0.15800
C275        C  0.00603351  0.32365629  0.22457789     0.03100
C276        C  0.50260267  0.29767596  0.21301687    -0.11100
C277        C  0.49306450  0.29376713  0.18079606    -0.01100
C278        C  0.48855726  0.31510509  0.15978037    -0.06300
H279        H  0.00542087  0.36449946  0.21242618     0.06200
H280        H  0.48950069  0.27409134  0.17175670     0.09500
Br281      Br  0.44295228  0.37552908  0.17996289    -0.06000
Br282      Br  0.04232692  0.40006722  0.08331321    -0.03000
Br283      Br  0.01399965  0.33201834  0.26970256    -0.00100
Br284      Br  0.47470783  0.30845631  0.11657903    -0.04500
C285        C  0.48142473  0.08959415  0.11140363    -0.11900
C286        C  0.49635478  0.09003027  0.14059600     0.03600
C287        C  0.49748781  0.11279962  0.16018001    -0.12400
C288        C  0.48335288  0.13518433  0.15190362     0.18400
C289        C  0.96701259  0.13422686  0.12423870    -0.09500
C290        C  0.96644166  0.11178811  0.10400032    -0.02400
H291        H  0.50991597  0.11324634  0.18166982     0.05000
C292        C  0.48705056  0.15968451  0.17140539     0.20400
H293        H  0.95428228  0.11173928  0.08224705     0.10100
C294        C  0.00159845  0.18005432  0.15788399    -0.15800
C295        C  0.00754797  0.20245050  0.17664162     0.03100
C296        C  0.49857191  0.20497490  0.20930781    -0.11100
C297        C  0.48333975  0.18498993  0.22253169    -0.01100
C298        C  0.47770324  0.16237381  0.20390685    -0.06300
H299        H  0.00903907  0.17813462  0.13298746     0.06200
H300        H  0.47657517  0.18658374  0.24778454     0.09500
Br301      Br  0.94472417  0.16291157  0.11389636    -0.06000
Br302      Br  0.51691720  0.06097922  0.15415821    -0.03000
Br303      Br  0.02889018  0.22865936  0.15723616    -0.00100
Br304      Br  0.45761942  0.13532535  0.22375647    -0.04500
C305        C  0.07452745  0.41581697  0.99839834    -0.11900
C306        C  0.10038087  0.42203134  0.99110964     0.03600
C307        C  0.11902720  0.40246985  0.99246923    -0.12400
C308        C  0.11252760  0.37660511  0.99990865     0.18400
C309        C  0.08691109  0.37026310  0.00659397    -0.09500
C310        C  0.06826473  0.38971017  0.00564972    -0.02400
H311        H  0.13877755  0.40737326  0.98721267     0.05000
C312        C  0.13271938  0.35648134  0.99993847     0.20400
H313        H  0.04867064  0.38419994  0.01078271     0.10100
C314        C  0.13882621  0.34378330  0.02955545    -0.15800
C315        C  0.15780089  0.32452512  0.03025179     0.03100
C316        C  0.17107147  0.31803071  0.00106345    -0.11100
C317        C  0.16525836  0.33095341  0.97159322    -0.01100
C318        C  0.14617617  0.35006649  0.97080729    -0.06300
H319        H  0.12875593  0.34885489  0.05212688     0.06200
H320        H  0.17541997  0.32589048  0.94909607     0.09500
Br321      Br  0.07606701  0.33528996  0.01631803    -0.06000
Br322      Br  0.11210209  0.45605125  0.97767559    -0.03000
Br323      Br  0.16503296  0.30767954  0.07145067    -0.00100
Br324      Br  0.13860255  0.36613752  0.92915773    -0.04500
C325        C  0.30450944  0.31365522  0.00230766    -0.11900
C326        C  0.31233386  0.32616216  0.97320303     0.03600
C327        C  0.33311993  0.34336040  0.97412686    -0.12400
C328        C  0.34599689  0.34850634  0.00396716     0.18400
C329        C  0.33793617  0.33614810  0.03315822    -0.09500
C330        C  0.31747394  0.31860125  0.03206619    -0.02400
H331        H  0.33889137  0.35320928  0.95172292     0.05000
C332        C  0.36604957  0.36874952  0.00486620     0.20400
H333        H  0.31149914  0.30891661  0.05449902     0.10100
C334        C  0.36032748  0.39284951  0.01979288    -0.15800
C335        C  0.37835607  0.41296342  0.02093054     0.03100
C336        C  0.40279894  0.40912122  0.00652404    -0.11100
C337        C  0.40853933  0.38470029  0.99198789    -0.01100
C338        C  0.39037094  0.36465722  0.99088137    -0.06300
H339        H  0.34162266  0.39599163  0.03070087     0.06200
H340        H  0.42708140  0.38130203  0.98077161     0.09500
Br341      Br  0.35411087  0.34287163  0.07504133    -0.06000
Br342      Br  0.29486592  0.32036677  0.93202161    -0.03000
Br343      Br  0.36826782  0.44440989  0.04394609    -0.00100
Br344      Br  0.39974170  0.33214231  0.97014374    -0.04500
C345        C  0.29969732  0.17870432  0.00602231    -0.11900
C346        C  0.31128936  0.17082853  0.03571556     0.03600
C347        C  0.33094621  0.15228255  0.03488155    -0.12400
C348        C  0.33939636  0.14174497  0.00461961     0.18400
C349        C  0.32745539  0.14952470  0.97494081    -0.09500
C350        C  0.30764590  0.16778694  0.97591132    -0.02400
H351        H  0.33964713  0.14603677  0.05785573     0.05000
C352        C  0.35986104  0.12185858  0.00442668     0.20400
H353        H  0.29878320  0.17402597  0.95303090     0.10100
C354        C  0.35458033  0.09711535  0.99086016    -0.15800
C355        C  0.37361364  0.07808775  0.98827956     0.03100
C356        C  0.39820025  0.08316222  0.00143620    -0.11100
C357        C  0.40334975  0.10788481  0.01546723    -0.01100
C358        C  0.38455648  0.12727056  0.01671865    -0.06300
H359        H  0.33563683  0.09285204  0.98126828     0.06200
H360        H  0.42213509  0.11225534  0.02549621     0.09500
Br361      Br  0.33808693  0.13678929  0.93227280    -0.06000
Br362      Br  0.30077798  0.18496691  0.07765035    -0.03000
Br363      Br  0.36509209  0.04681502  0.96387528    -0.00100
Br364      Br  0.39412827  0.16096224  0.03410887    -0.04500
C365        C  0.06809925  0.08882465  0.00735433    -0.11900
C366        C  0.08934648  0.08725613  0.02890501     0.03600
C367        C  0.10779158  0.10702483  0.02881543    -0.12400
C368        C  0.10534177  0.12843722  0.00764199     0.18400
C369        C  0.08382786  0.13043189  0.98685856    -0.09500
C370        C  0.06534357  0.11071901  0.98690602    -0.02400
H371        H  0.12426725  0.10557206  0.04503893     0.05000
C372        C  0.12622066  0.14762579  0.00602121     0.20400
H373        H  0.04903728  0.11222845  0.97040862     0.10100
C374        C  0.14323739  0.14629131  0.97930517    -0.14600
C375        C  0.16352453  0.16392302  0.97692621     0.03100
C376        C  0.16685905  0.18324841  0.00160077    -0.11100
C377        C  0.14982621  0.18453774  0.02832437    -0.01100
C378        C  0.12961682  0.16682936  0.03075600    -0.06300
H379        H  0.14070793  0.13143106  0.96029561     0.06200
H380        H  0.15235230  0.19936732  0.04736930     0.09500
Br381      Br  0.07898707  0.15973866  0.95812657    -0.06000
Br382      Br  0.09360483  0.05933483  0.06000432    -0.03000
Br383      Br  0.18588831  0.16099356  0.93950799    -0.00100
Br384      Br  0.10699507  0.16987323  0.06787920    -0.04500
C385        C  0.39848626  0.99807659  0.89378600    -0.11900
C386        C  0.39571040  0.01908082  0.87165521     0.03600
C387        C  0.37412375  0.02038774  0.85108830    -0.12400
C388        C  0.35542799  0.50070032  0.85180660     0.18400
C389        C  0.35887360  0.47909129  0.87278505    -0.09500
C390        C  0.38004385  0.47815184  0.89396905    -0.02400
H391        H  0.37170905  0.03696674  0.83483633     0.05000
C392        C  0.33204569  0.50307835  0.83131885     0.20400
H393        H  0.38209363  0.46183873  0.91074103     0.10100
C394        C  0.32895260  0.48658198  0.80382122    -0.15800
C395        C  0.30589917  0.48590182  0.78613076     0.03100
C396        C  0.28510470  0.50190547  0.79608615    -0.11100
C397        C  0.28874073  0.01921480  0.82307898    -0.01100
C398        C  0.31202534  0.02009089  0.84038540    -0.06300
H399        H  0.34437732  0.47349860  0.79672537     0.06200
H400        H  0.27337616  0.03213858  0.83080090     0.09500
Br401      Br  0.33482756  0.45072002  0.87385718    -0.06000
Br402      Br  0.41997013  0.04722747  0.87013148    -0.03000
Br403      Br  0.30405423  0.46091083  0.75065914    -0.00100
Br404      Br  0.31553791  0.04417213  0.87687254    -0.04500
C405        C  0.07169038  0.00106030  0.89201591    -0.11900
C406        C  0.07489326  0.48157949  0.86741878     0.03600
C407        C  0.09640575  0.48216075  0.84665384    -0.12400
C408        C  0.11480008  0.50206594  0.84985665     0.18400
C409        C  0.11061306  0.02242595  0.87299389    -0.09500
C410        C  0.08948057  0.02154833  0.89411452    -0.02400
H411        H  0.09933530  0.46645487  0.82888360     0.05000
C412        C  0.13923015  0.50014945  0.83119115     0.20400
H413        H  0.08699679  0.03691222  0.91248245     0.10100
C414        C  0.13941579  0.00207394  0.79664862    -0.15800
C415        C  0.16250017  0.00101674  0.77884900     0.03100
C416        C  0.18639794  0.49867561  0.79572825    -0.11100
C417        C  0.18552690  0.49509395  0.83032306    -0.01100
C418        C  0.16246441  0.49566245  0.84778997    -0.06300
H419        H  0.12150116  0.00451122  0.78345400     0.06200
H420        H  0.20247388  0.49106212  0.84453096     0.09500
Br421      Br  0.13339620  0.05175295  0.87697759    -0.06000
Br422      Br  0.05176802  0.45261756  0.86300915    -0.03000
Br423      Br  0.15952357  0.00244400  0.73145626    -0.00100
Br424      Br  0.16361497  0.48890590  0.89447036    -0.04500
C425        C  0.50073384  0.19993086  0.79380737    -0.11900
C426        C  0.01731763  0.19139569  0.81912072     0.03600
C427        C  0.01145215  0.16893401  0.83716423    -0.12400
C428        C  0.48935933  0.15433365  0.83020229     0.18400
C429        C  0.47248418  0.16299062  0.80536539    -0.09500
C430        C  0.47809442  0.18583017  0.78764693    -0.02400
H431        H  0.02438433  0.16260569  0.85651607     0.05000
C432        C  0.48450558  0.13031775  0.84957591     0.20400
H433        H  0.46526335  0.19197229  0.76816557     0.10100
C434        C  0.46900075  0.13188486  0.87771763    -0.15800
C435        C  0.46692956  0.11069323  0.89931424     0.03100
C436        C  0.48088183  0.08734658  0.89315043    -0.11100
C437        C  0.49519687  0.08534302  0.86380710    -0.01100
C438        C  0.49706689  0.10658551  0.84214271    -0.06300
H439        H  0.45893387  0.14993795  0.88333558     0.06200
H440        H  0.50578007  0.06758492  0.85831109     0.09500
Br441      Br  0.44244518  0.14337829  0.79378495    -0.06000
Br442      Br  0.04811328  0.20992803  0.83034366    -0.03000
Br443      Br  0.44416724  0.11483242  0.93626255    -0.00100
Br444      Br  0.51738739  0.10269472  0.80296305    -0.04500
C445        C  0.49392003  0.40846509  0.89297007    -0.11900
C446        C  0.01467468  0.39076611  0.89517828     0.03600
C447        C  0.01592019  0.36875974  0.87429881    -0.12400
C448        C  0.49691945  0.36393676  0.85051904     0.18400
C449        C  0.47655864  0.38196853  0.84746324    -0.09500
C450        C  0.47521403  0.40403189  0.86852163    -0.02400
H451        H  0.03193173  0.35536778  0.87649997     0.05000
C452        C  0.49889952  0.33999096  0.82931311     0.20400
H453        H  0.45909461  0.41729091  0.86647847     0.10100
C454        C  0.49388036  0.31529947  0.84293082    -0.15800
C455        C  0.49709599  0.29216814  0.82422697     0.03100
C456        C  0.50518953  0.29346430  0.79093148    -0.11100
C457        C  0.01023544  0.31830456  0.77754105    -0.01100
C458        C  0.00747223  0.34126919  0.79640152    -0.06300
H459        H  0.48802844  0.31398853  0.86855398     0.06200
H460        H  0.01681499  0.31989244  0.75224995     0.09500
Br461      Br  0.44968305  0.37658494  0.81577760    -0.06000
Br462      Br  0.04268484  0.39637285  0.92501464    -0.03000
Br463      Br  0.49271386  0.25958866  0.84669769    -0.00100
Br464      Br  0.01730926  0.37378518  0.77678377    -0.04500
C465        C  0.46083730  0.24610981  0.71207291    -0.11900
C466        C  0.44982379  0.26981580  0.70154337     0.03600
C467        C  0.42672769  0.26961125  0.68368496    -0.12400
C468        C  0.41415955  0.24594569  0.67627033     0.18400
C469        C  0.42493957  0.22231256  0.68770204    -0.09500
C470        C  0.44812079  0.22255413  0.70521489    -0.02400
H471        H  0.41892629  0.28790748  0.67476306     0.05000
C472        C  0.39128255  0.24589865  0.65413561     0.20400
H473        H  0.45659040  0.20418401  0.71272105     0.10100
C474        C  0.39306265  0.23336780  0.62325497    -0.15800
C475        C  0.37228056  0.23262473  0.60139147     0.03100
C476        C  0.34892515  0.24515820  0.60984612    -0.11100
C477        C  0.34694132  0.25712429  0.64118319    -0.01100
C478        C  0.36789921  0.25784568  0.66307565    -0.06300
H479        H  0.41082503  0.22390728  0.61614292     0.06200
H480        H  0.32917982  0.26634211  0.64849086     0.09500
Br481      Br  0.40878396  0.18910919  0.67991757    -0.06000
Br482      Br  0.46622492  0.30276266  0.70994969    -0.03000
Br483      Br  0.37693976  0.21260811  0.56133754    -0.00100
Br484      Br  0.36352212  0.27499061  0.70504667    -0.04500
C485        C  0.17125330  0.24548017  0.60595364    -0.11900
C486        C  0.17120316  0.25813962  0.63724743     0.03600
C487        C  0.14892258  0.25806712  0.65685055    -0.12400
C488        C  0.12645655  0.24546159  0.64605828     0.18400
C489        C  0.12659035  0.23255222  0.61520036    -0.09500
C490        C  0.14865030  0.23273783  0.59553862    -0.02400
H491        H  0.14908828  0.26798518  0.68063597     0.05000
C492        C  0.10327518  0.24516402  0.66755523     0.20400
H493        H  0.14810101  0.22266405  0.57186910     0.10100
C494        C  0.08340422  0.26313710  0.66232470    -0.15800
C495        C  0.06110918  0.26287228  0.68177060     0.03100
C496        C  0.05777543  0.24369453  0.70679502    -0.11100
C497        C  0.07827845  0.22605590  0.71208581    -0.01100
C498        C  0.10065208  0.22677674  0.69293692    -0.06300
H499        H  0.08533407  0.27763430  0.64308713     0.06200
H500        H  0.07775990  0.21189613  0.73163341     0.09500
Br501      Br  0.09718686  0.21384976  0.59915837    -0.06000
Br502      Br  0.20029083  0.27705238  0.65392119    -0.03000
Br503      Br  0.03637595  0.28993419  0.67296358    -0.00100
Br504      Br  0.12746764  0.20223916  0.70240340    -0.04500
C505        C  0.25834680  0.15614605  0.60601293    -0.11900
C506        C  0.26656043  0.13033322  0.59760593     0.03600
C507        C  0.26239114  0.10950336  0.61930342    -0.12400
C508        C  0.25035583  0.11338778  0.64978512     0.18400
C509        C  0.24272066  0.13890647  0.65884575    -0.09500
C510        C  0.24670224  0.15994488  0.63714637    -0.02400
H511        H  0.26875079  0.09001017  0.61238561     0.05000
C512        C  0.24671129  0.09054111  0.67194093     0.20400
H513        H  0.24010932  0.17925195  0.64443485     0.10100
C514        C  0.26512914  0.08513013  0.69627674    -0.15800
C515        C  0.26263897  0.06340791  0.71711323     0.03100
C516        C  0.24163635  0.04623480  0.71335548    -0.11100
C517        C  0.22327657  0.05170583  0.68889494    -0.01100
C518        C  0.22559736  0.07359403  0.66842686    -0.06300
H519        H  0.28133437  0.09813986  0.69940857     0.06200
H520        H  0.20677121  0.03904795  0.68605043     0.09500
Br521      Br  0.22632059  0.14565191  0.70042214    -0.06000
Br522      Br  0.28455863  0.12144571  0.55772057    -0.03000
Br523      Br  0.28724396  0.05976527  0.75192759    -0.00100
Br524      Br  0.19893037  0.08003838  0.63688304    -0.04500
C525        C  0.25849712  0.33787557  0.61166464    -0.11900
C526        C  0.27503535  0.34057993  0.63917391     0.03600
C527        C  0.27357500  0.36299307  0.65964785    -0.12400
C528        C  0.25558159  0.38294885  0.65358749     0.18400
C529        C  0.23899396  0.38008977  0.62619580    -0.09500
C530        C  0.24066898  0.35794283  0.60563027    -0.02400
H531        H  0.28672928  0.36497567  0.68026436     0.05000
C532        C  0.25404252  0.40649052  0.67587674     0.20400
H533        H  0.22777523  0.35634995  0.58466919     0.10100
C534        C  0.25833640  0.43162022  0.66300251    -0.15800
C535        C  0.25419082  0.45436046  0.68216265     0.03100
C536        C  0.24532513  0.45234949  0.71502436    -0.11100
C537        C  0.24243636  0.42709645  0.72837640    -0.01100
C538        C  0.24696349  0.40441907  0.70938429    -0.06300
H539        H  0.26429774  0.43357795  0.63749858     0.06200
H540        H  0.23638393  0.42494960  0.75381874     0.09500
Br541      Br  0.21305163  0.40547211  0.61608995    -0.06000
Br542      Br  0.30106590  0.31536000  0.64871586    -0.03000
Br543      Br  0.25922844  0.48741818  0.66109275    -0.00100
Br544      Br  0.24220500  0.37110369  0.73013679    -0.04500
C545        C  0.34924100  0.16454896  0.49064859    -0.11900
C546        C  0.37147416  0.16848683  0.47139364     0.03600
C547        C  0.38996895  0.14873417  0.46928167    -0.12400
C548        C  0.38671883  0.12515343  0.48612362     0.18400
C549        C  0.36459927  0.12106062  0.50496175    -0.09500
C550        C  0.34606201  0.14062924  0.50695841    -0.02400
H551        H  0.40703789  0.15180760  0.45463197     0.05000
C552        C  0.40711889  0.10543281  0.48513564     0.20400
H553        H  0.32925617  0.13729323  0.52182407     0.10100
C554        C  0.42474291  0.10465094  0.51127866    -0.15800
C555        C  0.44394606  0.08566762  0.51183840     0.03100
C556        C  0.44594008  0.06759894  0.48553728    -0.11100
C557        C  0.42814194  0.06824516  0.45951448    -0.01100
C558        C  0.40865099  0.08695507  0.45926165    -0.06300
H559        H  0.42323005  0.11856875  0.53155534     0.06200
H560        H  0.42933033  0.05399834  0.43956661     0.09500
Br561      Br  0.35908784  0.08910338  0.52850902    -0.06000
Br562      Br  0.37740790  0.19958816  0.44625948    -0.03000
Br563      Br  0.46616737  0.08421113  0.54963112    -0.00100
Br564      Br  0.38412293  0.08612064  0.42387107    -0.04500
C565        C  0.17758005  0.16015527  0.49692911    -0.11900
C566        C  0.15102639  0.16636344  0.49617728     0.03600
C567        C  0.13299205  0.14631310  0.49429582    -0.12400
C568        C  0.14041685  0.12000786  0.49358180     0.18400
C569        C  0.16662821  0.11364997  0.49424001    -0.09500
C570        C  0.18487277  0.13359381  0.49607731    -0.02400
H571        H  0.11281981  0.15128672  0.49342173     0.05000
C572        C  0.12019684  0.09984330  0.49196685     0.20400
H573        H  0.20491197  0.12813479  0.49668284     0.10100
C574        C  0.11782369  0.08409413  0.46352081    -0.15800
C575        C  0.09768508  0.06621987  0.46039552     0.03100
C576        C  0.07931711  0.06432450  0.48570769    -0.11100
C577        C  0.08166688  0.08004740  0.51409787    -0.01100
C578        C  0.10199609  0.09759289  0.51749093    -0.06300
H579        H  0.13152075  0.08591116  0.44358887     0.06200
H580        H  0.06785782  0.07830087  0.53391267     0.09500
Br581      Br  0.17863254  0.07815386  0.49324209    -0.06000
Br582      Br  0.13694761  0.20126261  0.49746594    -0.03000
Br583      Br  0.09580323  0.04487999  0.42118321    -0.00100
Br584      Br  0.10462488  0.11732382  0.55798306    -0.04500
C585        C  0.17287876  0.33339959  0.49752474    -0.11900
C586        C  0.15093880  0.32912612  0.47759108     0.03600
C587        C  0.13197690  0.34834326  0.47560638    -0.12400
C588        C  0.13433996  0.37201498  0.49294272     0.18400
C589        C  0.15597261  0.37637537  0.51306630    -0.09500
C590        C  0.17507078  0.35715845  0.51516708    -0.02400
H591        H  0.11538758  0.34497463  0.46000152     0.05000
C592        C  0.11395354  0.39182935  0.48943858     0.20400
H593        H  0.19169245  0.36081469  0.53060524     0.10100
C594        C  0.09640620  0.39553520  0.51528747    -0.15800
C595        C  0.07648185  0.41367384  0.51232124     0.03100
C596        C  0.07429805  0.42865028  0.48340289    -0.11100
C597        C  0.09152889  0.42468975  0.45738694    -0.01100
C598        C  0.11110361  0.40619249  0.46003298    -0.06300
H599        H  0.09815537  0.38417772  0.53769090     0.06200
H600        H  0.08980128  0.43617231  0.43507778     0.09500
Br601      Br  0.16056972  0.40858781  0.53709755    -0.06000
Br602      Br  0.14630895  0.29851036  0.45031147    -0.03000
Br603      Br  0.05280371  0.41767087  0.54825926    -0.00100
Br604      Br  0.13355398  0.40153762  0.42298081    -0.04500
C605        C  0.34431382  0.33816952  0.49801991    -0.11900
C606        C  0.34107428  0.36365413  0.51134206     0.03600
C607        C  0.35994647  0.38260781  0.50626170    -0.12400
C608        C  0.38218196  0.37652512  0.48849087     0.18400
C609        C  0.38571626  0.35113138  0.47583509    -0.09500
C610        C  0.36683778  0.33225084  0.48045585    -0.02400
H611        H  0.35758751  0.40200187  0.51689372     0.05000
C612        C  0.40259649  0.39615676  0.48593216     0.20400
H613        H  0.36976297  0.31287582  0.47003493     0.10100
C614        C  0.42210628  0.39612623  0.50972357    -0.15800
C615        C  0.44204599  0.41419007  0.50824316     0.03100
C616        C  0.44263307  0.43257746  0.48250123    -0.11100
C617        C  0.42307029  0.43262058  0.45864766    -0.01100
C618        C  0.40307311  0.41451222  0.46019366    -0.06300
H619        H  0.42174281  0.38200476  0.52956675     0.06200
H620        H  0.42338354  0.44680896  0.43888235     0.09500
Br621      Br  0.41628602  0.34140403  0.45261714    -0.06000
Br622      Br  0.31256371  0.37331507  0.53884138    -0.03000
Br623      Br  0.46761570  0.41341832  0.54238490    -0.00100
Br624      Br  0.37699094  0.41540191  0.42674969    -0.04500
C625        C  0.17594525  0.24513103  0.38797179    -0.11900
C626        C  0.16055001  0.22264662  0.38430101     0.03600
C627        C  0.13912539  0.22308111  0.36323961    -0.12400
C628        C  0.13289931  0.24566178  0.34523294     0.18400
C629        C  0.14922592  0.26758714  0.34754754    -0.09500
C630        C  0.17048210  0.26720928  0.36881737    -0.02400
H631        H  0.12704670  0.20590820  0.36132761     0.05000
C632        C  0.10867439  0.24656433  0.32566979     0.20400
H633        H  0.18236096  0.28449761  0.37111738     0.10100
C634        C  0.08906135  0.26360954  0.33558863    -0.15800
C635        C  0.06591254  0.26516102  0.31803497     0.03100
C636        C  0.06105819  0.24812052  0.29067292    -0.11100
C637        C  0.08154265  0.23194581  0.28007211    -0.01100
C638        C  0.10499312  0.23121333  0.29706048    -0.06300
H639        H  0.09198737  0.27620959  0.35695899     0.06200
H640        H  0.08017796  0.22044706  0.25767298     0.09500
Br641      Br  0.14338929  0.29838082  0.32178596    -0.06000
Br642      Br  0.16870605  0.19077449  0.40688044    -0.03000
Br643      Br  0.04272890  0.29208689  0.33258415    -0.00100
Br644      Br  0.13218650  0.21048328  0.27868027    -0.04500
C645        C  0.34982919  0.25060724  0.39335401    -0.11900
C646        C  0.35076077  0.23473896  0.36457226     0.03600
C647        C  0.37286424  0.23459516  0.34485808    -0.12400
C648        C  0.39437755  0.24949083  0.35384168     0.18400
C649        C  0.39353999  0.26503311  0.38263284    -0.09500
C650        C  0.37137996  0.26573430  0.40182728    -0.02400
H651        H  0.37358072  0.22221798  0.32298969     0.05000
C652        C  0.41778287  0.24840077  0.33335859     0.20400
H653        H  0.37121580  0.27778797  0.42400014     0.10100
C654        C  0.42010420  0.26524805  0.30640266    -0.15800
C655        C  0.44275498  0.26621686  0.28791300     0.03100
C656        C  0.46346789  0.24941729  0.29576738    -0.11100
C657        C  0.46073171  0.23227001  0.32263765    -0.01100
C658        C  0.43839204  0.23198447  0.34164378    -0.06300
H659        H  0.40450954  0.27843299  0.30049354     0.06200
H660        H  0.47620325  0.21917303  0.32925442     0.09500
Br661      Br  0.42264280  0.28475834  0.39741365    -0.06000
Br662      Br  0.32378235  0.21089486  0.35286548    -0.03000
Br663      Br  0.44460536  0.29295164  0.25500138    -0.00100
Br664      Br  0.43724483  0.20964885  0.37953487    -0.04500
C665        C  0.26206785  0.34002765  0.39381498    -0.11900
C666        C  0.25226630  0.33800332  0.36118703     0.03600
C667        C  0.25129616  0.36027101  0.34101348    -0.12400
C668        C  0.26002825  0.38467925  0.35255939     0.18400
C669        C  0.27055909  0.38655055  0.38447938    -0.09500
C670        C  0.27159498  0.36445905  0.40466384    -0.02400
H671        H  0.24287622  0.35873782  0.31656278     0.05000
C672        C  0.25542916  0.40852629  0.33265087     0.20400
H673        H  0.27952150  0.36660354  0.42932241     0.10100
C674        C  0.23266475  0.42248875  0.33765954    -0.15800
C675        C  0.22724460  0.44511280  0.31965759     0.03100
C676        C  0.24476060  0.45423195  0.29574392    -0.11100
C677        C  0.26802159  0.44065851  0.29150892    -0.01100
C678        C  0.27339675  0.41793270  0.30972121    -0.06300
H679        H  0.21900367  0.41572554  0.35581201     0.06200
H680        H  0.28168641  0.44724727  0.27327359     0.09500
Br681      Br  0.28280752  0.41924865  0.40198188    -0.06000
Br682      Br  0.23797933  0.30620785  0.34339772    -0.03000
Br683      Br  0.19593606  0.46315420  0.32990353    -0.00100
Br684      Br  0.30525150  0.40009082  0.30252112    -0.04500
C685        C  0.26520089  0.16130385  0.38748853    -0.11900
C686        C  0.28438536  0.14183484  0.38648039     0.03600
C687        C  0.28220296  0.12064494  0.36434448    -0.12400
C688        C  0.26104924  0.11836588  0.34297857     0.18400
C689        C  0.24213926  0.13815534  0.34360301    -0.09500
C690        C  0.24453238  0.15951542  0.36538598    -0.02400
H691        H  0.29684758  0.10559923  0.36421617     0.05000
C692        C  0.25784056  0.09409369  0.32271893     0.20400
H693        H  0.22946637  0.17411337  0.36626757     0.10100
C694        C  0.25385549  0.07027375  0.33897330    -0.15800
C695        C  0.24886386  0.04717792  0.32118492     0.03100
C696        C  0.24779690  0.04750124  0.28641046    -0.11100
C697        C  0.25259510  0.07116841  0.26998921    -0.01100
C698        C  0.25785693  0.09429205  0.28781919    -0.06300
H699        H  0.25384672  0.06980544  0.36575961     0.06200
H700        H  0.25206258  0.07167835  0.24320929     0.09500
Br701      Br  0.21144321  0.13578186  0.31757481    -0.06000
Br702      Br  0.31411566  0.14355786  0.41439342    -0.03000
Br703      Br  0.24167870  0.01620074  0.34573684    -0.00100
Br704      Br  0.26527682  0.12555418  0.26361741    -0.04500
O705        O  0.26349971  0.70623905  0.40376780    -0.80000
O706        O  0.25952467  0.70254318  0.59368811    -0.81600
O707        O  0.30558112  0.67610773  0.49539982    -0.78600
O708        O  0.22149949  0.67313522  0.49737617    -0.77000
O709        O  0.19069797  0.70457131  0.49854004    -0.78800
O710        O  0.33545330  0.70869411  0.49571319    -0.79700
O711        O  0.26169688  0.67278704  0.55127372    -0.81100
O712        O  0.26514321  0.67460085  0.44362092    -0.81300
Eu713      Eu  0.26287097  0.69591743  0.49834385     2.39200
O714        O  0.23633956  0.72157223  0.53256501    -0.88900
O715        O  0.28789476  0.72373126  0.46588454    -0.92500
C716        C  0.26488866  0.68212424  0.41321015     1.02200
C717        C  0.26021672  0.67865191  0.58229093     1.02100
C718        C  0.32885008  0.68444690  0.49393817     1.02000
C719        C  0.19785803  0.68054676  0.49780553     0.99900
H720        H  0.29860969  0.71111762  0.54724602     0.29600
O721        O  0.28760835  0.72225096  0.53425243    -1.01200
H722        H  0.22640550  0.71075422  0.45039845     0.29600
O723        O  0.23670465  0.72194390  0.46440328    -1.03800
O724        O  0.26093842  0.79183952  0.59711922    -0.81000
O725        O  0.26222569  0.79411838  0.40691839    -0.80500
O726        O  0.33374275  0.74885997  0.55500642    -0.79000
O727        O  0.18760944  0.74619344  0.55151276    -0.82300
O728        O  0.18938198  0.74569252  0.44382984    -0.80200
O729        O  0.33415626  0.75100656  0.44778437    -0.78800
O730        O  0.30089824  0.82458928  0.50120746    -0.80300
O731        O  0.21704878  0.82227585  0.50106847    -0.82300
O732        O  0.33245407  0.79362190  0.50144009    -0.79000
O733        O  0.18745786  0.78946432  0.49891354    -0.81700
O734        O  0.30393421  0.74669231  0.59625054    -0.77400
O735        O  0.30489900  0.74953578  0.40561769    -0.77500
O736        O  0.21987406  0.74860292  0.40334984    -0.77100
O737        O  0.21673833  0.74680773  0.59388827    -0.80600
O738        O  0.25962447  0.82284740  0.55646231    -0.80000
O739        O  0.26043250  0.82441497  0.44877099    -0.78300
Eu740      Eu  0.26077253  0.74765855  0.56938373     2.39800
Eu741      Eu  0.26198184  0.74972446  0.43151139     2.39600
Eu742      Eu  0.31244007  0.75025264  0.50122439     2.38400
Eu743      Eu  0.21028366  0.74763917  0.49865100     2.39900
Eu744      Eu  0.25975971  0.80162243  0.50187558     2.39800
O745        O  0.23505123  0.77544279  0.46575747    -0.92800
O746        O  0.28590216  0.77547699  0.53592007    -0.91700
C747        C  0.26014035  0.81594651  0.58709332     1.02400
C748        C  0.26148077  0.81800708  0.41784546     1.01100
C749        C  0.32738608  0.74700418  0.58565999     1.00500
C750        C  0.19344601  0.74627523  0.58254400     1.02500
C751        C  0.19644368  0.74654496  0.41324443     1.01400
C752        C  0.32809573  0.75022906  0.41686596     1.00300
C753        C  0.32460353  0.81757327  0.50090488     1.00400
C754        C  0.19377657  0.81382474  0.49942237     1.03000
H755        H  0.29720453  0.78762412  0.45432643     0.30300
O756        O  0.28650432  0.77633318  0.46741804    -1.04900
H757        H  0.22347047  0.78454481  0.54831827     0.32400
O758        O  0.23472967  0.77395939  0.53478885    -1.07500
N759        N  0.04972097  0.49760042  0.48046960    -0.36500
N760        N  0.50932268  0.95868154  0.47955160    -0.57100
N761        N  0.47160896  0.49967568  0.48135886    -0.36500
N762        N  0.51199192  0.53881390  0.48459465    -0.57100
C763        C  0.06325819  0.97569798  0.48708595     0.27100
C764        C  0.06474707  0.51821546  0.48853416     0.27100
C765        C  0.45698528  0.97868493  0.48846854     0.27100
C766        C  0.45834205  0.52113716  0.49079326     0.27100
C767        C  0.02957226  0.94299133  0.47356094     0.35700
C768        C  0.48825374  0.94424794  0.47322505     0.35700
C769        C  0.03299981  0.55362861  0.47959324     0.35700
C770        C  0.49160975  0.55460910  0.47985376     0.35700
C771        C  0.08728044  0.98248299  0.49908585    -0.21800
C772        C  0.08822754  0.50933924  0.49997006    -0.21800
C773        C  0.43414180  0.98690548  0.50260076    -0.21800
C774        C  0.43497734  0.51377397  0.50402794    -0.21800
C775        C  0.02139952  0.91843733  0.46327032    -0.22900
C776        C  0.49511240  0.91927552  0.46287719    -0.22900
C777        C  0.02597346  0.57905147  0.47201062    -0.22900
C778        C  0.49967333  0.57965295  0.47202905    -0.22900
C779        C  0.05509357  0.94978803  0.48076856    -0.18200
C780        C  0.05837291  0.54479684  0.48396435    -0.18200
C781        C  0.46597465  0.54718226  0.48532494    -0.18200
C782        C  0.46316636  0.95246212  0.48071711    -0.18200
H783        H  0.10266231  0.96944329  0.50616183     0.14700
H784        H  0.10445291  0.52100192  0.50785335     0.14700
H785        H  0.41838907  0.97482084  0.51071661     0.14700
H786        H  0.41998849  0.52647668  0.51336037     0.14700
H787        H  0.03313966  0.90153033  0.45753381     0.13000
H788        H  0.48249997  0.90310937  0.45690883     0.13000
H789        H  0.03848141  0.59546921  0.46728109     0.13000
H790        H  0.48785901  0.59667768  0.46747727     0.13000
H791        H  0.03246815  0.49844994  0.46768733     0.26200
H792        H  0.48815403  0.49961028  0.46709655     0.26200
O793        O  0.48825510  0.95392163  0.90708949    -0.80000
O794        O  0.48715992  0.95498774  0.09714208    -0.81600
O795        O  0.03047309  0.92716427  0.00003933    -0.78600
O796        O  0.44607932  0.92327070  0.00421526    -0.77000
O797        O  0.41428842  0.95393289  0.00469361    -0.78800
O798        O  0.06000093  0.95987275  0.99987139    -0.79700
O799        O  0.48997829  0.92444102  0.05536497    -0.81100
O800        O  0.49061959  0.92348391  0.94829119    -0.81300
Eu801      Eu  0.48742290  0.94621577  0.00194304     2.39200
O802        O  0.46112427  0.97165078  0.03676321    -0.88900
O803        O  0.01205796  0.97343228  0.96830199    -0.92500
C804        C  0.49068604  0.93009577  0.91754819     1.02200
C805        C  0.48927234  0.93117839  0.08613133     1.02100
C806        C  0.05374970  0.93558335  0.99924807     1.02000
C807        C  0.42227419  0.93011225  0.00533599     0.99900
H808        H  0.02354567  0.96303542  0.04919136     0.29600
O809        O  0.01222174  0.97376960  0.03604862    -1.01200
H810        H  0.44984648  0.95944820  0.95446550     0.29600
O811        O  0.46025813  0.97094187  0.96786423    -1.03800
O812        O  0.48390676  0.54370248  0.09733137    -0.81000
O813        O  0.48336838  0.54191644  0.90731513    -0.80500
O814        O  0.05836262  0.99968103  0.05583619    -0.79000
O815        O  0.41334332  0.99665449  0.05725666    -0.82300
O816        O  0.41263544  0.99640434  0.94903497    -0.80200
O817        O  0.05785356  0.00161089  0.94755146    -0.78800
O818        O  0.02507743  0.57476163  0.00423887    -0.80300
O819        O  0.44191756  0.57162116  0.00139916    -0.82300
O820        O  0.05696918  0.54412333  0.00475136    -0.79000
O821        O  0.41214314  0.53901294  0.00213508    -0.81700
O822        O  0.02908506  0.99922879  0.09789855    -0.77400
O823        O  0.02760395  0.49848109  0.90658149    -0.77500
O824        O  0.44263123  0.49810104  0.90777420    -0.77100
O825        O  0.44323359  0.99740381  0.09872951    -0.80600
O826        O  0.48212021  0.57416306  0.05617031    -0.80000
O827        O  0.48243168  0.57283682  0.94859272    -0.78300
Eu828      Eu  0.48591542  0.99913535  0.07150197     2.39800
Eu829      Eu  0.48534704  0.99817851  0.93376827     2.39600
Eu830      Eu  0.03683787  0.00106120  0.00203831     2.38400
Eu831      Eu  0.43441003  0.99689556  0.00291862     2.39900
Eu832      Eu  0.48412039  0.55140023  0.00263624     2.39800
O833        O  0.45921009  0.52376997  0.96890584    -0.92800
O834        O  0.01079301  0.52648975  0.03714304    -0.91700
C835        C  0.48252757  0.56762821  0.08692684     1.02400
C836        C  0.48211200  0.56592363  0.91782929     1.01100
C837        C  0.05234043  0.99881856  0.08671454     1.00500
C838        C  0.41980745  0.99719633  0.08809449     1.02500
C839        C  0.41932308  0.49744765  0.91836274     1.01400
C840        C  0.05099128  0.50011093  0.91687645     1.00300
C841        C  0.04882396  0.56791548  0.00544902     1.00400
C842        C  0.41866760  0.56329506  0.00133918     1.03000
H843        H  0.02086629  0.53762920  0.95416689     0.30300
O844        O  0.01049668  0.52626128  0.96764602    -1.04900
H845        H  0.44805200  0.53517312  0.05033162     0.32400
O846        O  0.45924298  0.52446412  0.03691448    -1.07500
N847        N  0.27457677  0.74726348  0.00443199    -0.36500
N848        N  0.23435454  0.70812960  0.00195346    -0.57100
N849        N  0.19667480  0.74968011  0.00145224    -0.36500
N850        N  0.23692565  0.78875447  0.00073756    -0.57100
C851        C  0.28847403  0.72532356  0.99913191     0.27100
C852        C  0.28990021  0.76780003  0.99762774     0.27100
C853        C  0.18183163  0.72882449  0.99379960     0.27100
C854        C  0.18298194  0.77137909  0.99439736     0.27100
C855        C  0.25435501  0.69251940  0.00938553     0.35700
C856        C  0.21309426  0.69373372  0.00683558     0.35700
C857        C  0.25804424  0.80360709  0.00507673     0.35700
C858        C  0.21666868  0.80487835  0.00478612     0.35700
C859        C  0.31301363  0.73199676  0.98920680    -0.21800
C860        C  0.31389917  0.75882339  0.98822917    -0.21800
C861        C  0.15841167  0.73736601  0.98175882    -0.21800
C862        C  0.15908835  0.76426574  0.98228756    -0.21800
C863        C  0.24582846  0.66795657  0.01857089    -0.22900
C864        C  0.21959145  0.66876721  0.01711796    -0.22900
C865        C  0.25121639  0.82942036  0.01116242    -0.22900
C866        C  0.22493942  0.83022197  0.01105711    -0.22900
C867        C  0.28018873  0.69956930  0.00539507    -0.18200
C868        C  0.28338886  0.79442755  0.00175401    -0.18200
C869        C  0.19088242  0.79737611  0.00059500    -0.18200
C870        C  0.18802295  0.70242541  0.00015405    -0.18200
H871        H  0.32882319  0.71895619  0.98374932     0.14700
H872        H  0.33046686  0.77039747  0.98176912     0.14700
H873        H  0.14232369  0.72544726  0.97401286     0.14700
H874        H  0.14363546  0.77710939  0.97491298     0.14700
H875        H  0.25730873  0.65116069  0.02529902     0.13000
H876        H  0.20679655  0.65273008  0.02256393     0.13000
H877        H  0.26384100  0.84596334  0.01497306     0.13000
H878        H  0.21327391  0.84753548  0.01468497     0.13000
H879        H  0.25686311  0.74817856  0.01596465     0.26200
H880        H  0.21366686  0.74923683  0.01481127     0.26200
C881        C  0.03526073  0.74839671  0.27171000     0.86600
C882        C  0.03017659  0.72525927  0.24767547    -0.53700
C883        C  0.50743242  0.72667195  0.23114067     0.09500
C884        C  0.49143582  0.75108149  0.23992670     0.20400
C885        C  0.03215288  0.77291221  0.25037076    -0.54400
C886        C  0.50928218  0.77469171  0.23396891     0.09600
C887        C  0.51146198  0.74808229  0.29416729    -0.53900
C888        C  0.48847863  0.74999194  0.27787855     0.10200
H889        H  0.04233770  0.70818880  0.24500980     0.14700
H890        H  0.47304416  0.75178630  0.22619299     0.00400
H891        H  0.04699261  0.78768542  0.24841198     0.15000
H892        H  0.51273203  0.74630932  0.32084752     0.14800
C893        C  0.21327656  0.99798544  0.22931162     0.86600
C894        C  0.21585480  0.97576442  0.25494816    -0.53700
C895        C  0.23800502  0.97610584  0.27295705     0.09500
C896        C  0.25605122  0.99873061  0.26356439     0.20400
C897        C  0.21764568  0.52332449  0.24935917    -0.54400
C898        C  0.23992107  0.52394643  0.26703156     0.09600
C899        C  0.23764320  0.99462448  0.20824536    -0.53900
C900        C  0.25992834  0.99527143  0.22609156     0.10200
H901        H  0.20283963  0.95947550  0.25726767     0.14700
H902        H  0.27423465  0.99920357  0.27786655     0.00400
H903        H  0.20429753  0.53965391  0.24921416     0.15000
H904        H  0.23736529  0.99245996  0.18150524     0.14800
C905        C  0.03347683  0.74337430  0.72860920     0.86600
C906        C  0.03192993  0.76775619  0.75100829    -0.53700
C907        C  0.51032907  0.76964715  0.76996709     0.09500
C908        C  0.49181931  0.74627510  0.76482842     0.20400
C909        C  0.02986840  0.72021478  0.75252782    -0.54400
C910        C  0.50819662  0.72164491  0.77142965     0.09600
C911        C  0.50833462  0.74326485  0.70861197    -0.53900
C912        C  0.48669407  0.74534156  0.72730283     0.10200
H913        H  0.04681732  0.78258456  0.75147397     0.14700
H914        H  0.47400019  0.74748096  0.77968259     0.00400
H915        H  0.04214104  0.70316360  0.75363684     0.15000
H916        H  0.50765317  0.74166320  0.68182552     0.14800
C917        C  0.21219907  0.99940381  0.77704603     0.86600
C918        C  0.21480251  0.52344390  0.75480362    -0.53700
C919        C  0.23667231  0.52418778  0.73646709     0.09500
C920        C  0.25453691  0.00042850  0.74221529     0.20400
C921        C  0.21580159  0.97565690  0.75400738    -0.54400
C922        C  0.23783844  0.97572522  0.73574691     0.09600
C923        C  0.23714707  0.00011032  0.79795188    -0.53900
C924        C  0.25929932  0.00045011  0.77990680     0.10200
H925        H  0.20053366  0.53891663  0.75388224     0.14700
H926        H  0.27235930  0.00134429  0.72749291     0.00400
H927        H  0.20212554  0.95966835  0.75286758     0.15000
H928        H  0.23794876  0.00087536  0.82464448     0.14800
C929        C  0.07414746  0.99736535  0.11033767    -0.11900
C930        C  0.09626663  0.98250174  0.10272662     0.03600
C931        C  0.11812789  0.98440347  0.12259967    -0.12400
C932        C  0.11830408  0.00024287  0.15097285     0.18400
C933        C  0.09580010  0.51379638  0.15996388    -0.09500
C934        C  0.07400173  0.51236461  0.13961962    -0.02400
H935        H  0.13495323  0.97298968  0.11627951     0.05000
C936        C  0.14166043  0.00066539  0.17188341     0.20400
H937        H  0.05714798  0.52341183  0.14633334     0.10100
C938        C  0.16175375  0.51781556  0.16467960    -0.15800
C939        C  0.18466384  0.51742464  0.18300325     0.03100
C940        C  0.18819845  0.99901960  0.20890733    -0.11100
C941        C  0.16731309  0.98241388  0.21620678    -0.01100
C942        C  0.14456724  0.98301582  0.19794393    -0.06300
H943        H  0.15959349  0.53160262  0.14463914     0.06200
H944        H  0.16776001  0.96897433  0.23648837     0.09500
Br945      Br  0.09405021  0.53437890  0.19973046    -0.06000
Br946      Br  0.09716683  0.95745443  0.06724843    -0.03000
Br947      Br  0.20989023  0.54314938  0.17140193    -0.00100
Br948      Br  0.11779880  0.95906239  0.20939912    -0.04500
C949        C  0.39849724  0.99817851  0.11253098    -0.11900
C950        C  0.37654763  0.51381981  0.10675378     0.03600
C951        C  0.35596915  0.51338117  0.12875717    -0.12400
C952        C  0.35651098  0.99766071  0.15692869     0.18400
C953        C  0.37849167  0.98245825  0.16339598    -0.09500
C954        C  0.39936137  0.98293857  0.14140132    -0.02400
H955        H  0.33917290  0.52514325  0.12355936     0.05000
C956        C  0.33316882  0.99640489  0.17777294     0.20400
H957        H  0.41598086  0.97088907  0.14643290     0.10100
C958        C  0.31835920  0.97347536  0.17722688    -0.15800
C959        C  0.29459882  0.97255177  0.19319040     0.03100
C960        C  0.28548390  0.99472278  0.21045187    -0.11100
C961        C  0.30058900  0.51736330  0.21199809    -0.01100
C962        C  0.32407603  0.51851942  0.19546176    -0.06300
H963        H  0.32496522  0.95648973  0.16345404     0.06200
H964        H  0.29366421  0.53450851  0.22519911     0.09500
Br965      Br  0.38064822  0.96098480  0.20203829    -0.06000
Br966      Br  0.37362578  0.53711268  0.06990026    -0.03000
Br967      Br  0.27531269  0.94067004  0.19072884    -0.00100
Br968      Br  0.34266879  0.55085123  0.19722001    -0.04500
C969        C  0.49132007  0.90951035  0.10992247    -0.11900
C970        C  0.01243061  0.89229970  0.10887800     0.03600
C971        C  0.01250373  0.86959360  0.12801969    -0.12400
C972        C  0.49189720  0.86383883  0.14889184     0.18400
C973        C  0.47123167  0.88157125  0.15096288    -0.09500
C974        C  0.47095787  0.90412724  0.13135903    -0.02400
H975        H  0.02895245  0.85665435  0.12717352     0.05000
C976        C  0.49379265  0.84079584  0.17085851     0.20400
H977        H  0.45458296  0.91715513  0.13231051     0.10100
C978        C  0.00202679  0.84475888  0.20342617    -0.15800
C979        C  0.00598504  0.82365207  0.22460196     0.03100
C980        C  0.50258449  0.79767419  0.21302393    -0.11100
C981        C  0.49307048  0.79376342  0.18079178    -0.01100
C982        C  0.48855673  0.81510334  0.15978197    -0.06300
H983        H  0.00535040  0.86449771  0.21246724     0.06200
H984        H  0.48953200  0.77408562  0.17174045     0.09500
Br985      Br  0.44295022  0.87555989  0.18001056    -0.06000
Br986      Br  0.04229473  0.90000792  0.08326647    -0.03000
Br987      Br  0.01391004  0.83200329  0.26974181    -0.00100
Br988      Br  0.47472772  0.80845946  0.11656811    -0.04500
C989        C  0.48140021  0.58962195  0.11139129    -0.11900
C990        C  0.49634991  0.59007095  0.14056643     0.03600
C991        C  0.49747266  0.61283793  0.16015569    -0.12400
C992        C  0.48331509  0.63521065  0.15189639     0.18400
C993        C  0.96695805  0.63424280  0.12424625    -0.09500
C994        C  0.96639255  0.61180386  0.10400530    -0.02400
H995        H  0.50991394  0.61329437  0.18163261     0.05000
C996        C  0.48701544  0.65971259  0.17139212     0.20400
H997        H  0.95422145  0.61174609  0.08226289     0.10100
C998        C  0.00166100  0.68003042  0.15792159    -0.15800
C999        C  0.00762405  0.70241685  0.17669028     0.03100
C1000       C  0.49855827  0.70498807  0.20931159    -0.11100
C1001       C  0.48323321  0.68505441  0.22248172    -0.01100
C1002       C  0.47758943  0.66244273  0.20385028    -0.06300
H1003       H  0.00916815  0.67807415  0.13306275     0.06200
H1004       H  0.47640535  0.68667969  0.24770311     0.09500
Br1005     Br  0.94465252  0.66291794  0.11392317    -0.06000
Br1006     Br  0.51696221  0.56104530  0.15408676    -0.03000
Br1007     Br  0.02909864  0.72855171  0.15736630    -0.00100
Br1008     Br  0.45740393  0.63544602  0.22363987    -0.04500
C1009       C  0.07453577  0.91580826  0.99839045    -0.11900
C1010       C  0.10038898  0.92202506  0.99109937     0.03600
C1011       C  0.11903304  0.90246034  0.99242958    -0.12400
C1012       C  0.11253358  0.87659432  0.99985895     0.18400
C1013       C  0.08692061  0.87025242  0.00656404    -0.09500
C1014       C  0.06827439  0.88969955  0.00563291    -0.02400
H1015       H  0.13878230  0.90736350  0.98716548     0.05000
C1016       C  0.13272364  0.85647099  0.99987034     0.20400
H1017       H  0.04868159  0.88418793  0.01077081     0.10100
C1018       C  0.13884314  0.84377210  0.02948203    -0.15800
C1019       C  0.15781569  0.82451248  0.03016194     0.03100
C1020       C  0.17107522  0.81802364  0.00096370    -0.11100
C1021       C  0.16525033  0.83094749  0.97149898    -0.01100
C1022       C  0.14616571  0.85005704  0.97072761    -0.06300
H1023       H  0.12878224  0.84884201  0.05206106     0.06200
H1024       H  0.17540251  0.82588571  0.94899420     0.09500
Br1025     Br  0.07608260  0.83528084  0.01630899    -0.06000
Br1026     Br  0.11211760  0.95605486  0.97771383    -0.03000
Br1027     Br  0.16505474  0.80765316  0.07134984    -0.00100
Br1028     Br  0.13856584  0.86611913  0.92908084    -0.04500
C1029       C  0.30451049  0.81365615  0.00217811    -0.11900
C1030       C  0.31235066  0.82616252  0.97308035     0.03600
C1031       C  0.33313189  0.84336590  0.97402464    -0.12400
C1032       C  0.34598838  0.84851653  0.00387826     0.18400
C1033       C  0.33791264  0.83615816  0.03306198    -0.09500
C1034       C  0.31745479  0.81860699  0.03195006    -0.02400
H1035       H  0.33891582  0.85321436  0.95162577     0.05000
C1036       C  0.36603999  0.86875929  0.00479642     0.20400
H1037       H  0.31146730  0.80892309  0.05437774     0.10100
C1038       C  0.36031544  0.89285397  0.01973592    -0.15800
C1039       C  0.37834681  0.91296428  0.02089885     0.03100
C1040       C  0.40279418  0.90912299  0.00650508    -0.11100
C1041       C  0.40853605  0.88470814  0.99195498    -0.01100
C1042       C  0.39036522  0.86466929  0.99082246    -0.06300
H1043       H  0.34160709  0.89599428  0.03063466     0.06200
H1044       H  0.42708107  0.88131223  0.98074569     0.09500
Br1045     Br  0.35406174  0.84288679  0.07496084    -0.06000
Br1046     Br  0.29491049  0.82035992  0.93188101    -0.03000
Br1047     Br  0.36825563  0.94440408  0.04392739    -0.00100
Br1048     Br  0.39973852  0.83216406  0.97006248    -0.04500
C1049       C  0.29969566  0.67871362  0.00587302    -0.11900
C1050       C  0.31129385  0.67086102  0.03557203     0.03600
C1051       C  0.33095297  0.65231799  0.03475284    -0.12400
C1052       C  0.33940080  0.64176319  0.00449943     0.18400
C1053       C  0.32745681  0.64952352  0.97481447    -0.09500
C1054       C  0.30764344  0.66778113  0.97577076    -0.02400
H1055       H  0.33965725  0.64608776  0.05773179     0.05000
C1056       C  0.35986347  0.62187598  0.00432387     0.20400
H1057       H  0.29877741  0.67400511  0.95288579     0.10100
C1058       C  0.35457951  0.59712535  0.99078184    -0.15800
C1059       C  0.37360933  0.57809267  0.98822454     0.03100
C1060       C  0.39819507  0.58317118  0.00138115    -0.11100
C1061       C  0.40334771  0.60790209  0.01538689    -0.01100
C1062       C  0.38455832  0.62729199  0.01661411    -0.06300
H1063       H  0.33563600  0.59285916  0.98119203     0.06200
H1064       H  0.42213270  0.61227620  0.02541451     0.09500
Br1065     Br  0.33808871  0.63676709  0.93215651    -0.06000
Br1066     Br  0.30078926  0.68502882  0.07749424    -0.03000
Br1067     Br  0.36508408  0.54680629  0.96385089    -0.00100
Br1068     Br  0.39413466  0.66099314  0.03397061    -0.04500
C1069       C  0.06808732  0.58884026  0.00732435    -0.11900
C1070       C  0.08932054  0.58728935  0.02889881     0.03600
C1071       C  0.10776701  0.60705648  0.02879922    -0.12400
C1072       C  0.10533328  0.62844670  0.00758652     0.18400
C1073       C  0.08383391  0.63042161  0.98677463    -0.09500
C1074       C  0.06534644  0.61071271  0.98683677    -0.02400
H1075       H  0.12423277  0.60561746  0.04504150     0.05000
C1076       C  0.12621667  0.64762841  0.00594827     0.20400
H1077       H  0.04905115  0.61220586  0.97031864     0.10100
C1078       C  0.14322921  0.64627635  0.97922936    -0.14600
C1079       C  0.16351267  0.66390923  0.97682284     0.03100
C1080       C  0.16685179  0.68325056  0.00147665    -0.11100
C1081       C  0.14982266  0.68455729  0.02820386    -0.01100
C1082       C  0.12961343  0.66685068  0.03065933    -0.06300
H1083       H  0.14069642  0.63140404  0.96023555     0.06200
H1084       H  0.15235035  0.69940034  0.04723167     0.09500
Br1085     Br  0.07902014  0.65969382  0.95797884    -0.06000
Br1086     Br  0.09355805  0.55938973  0.06003405    -0.03000
Br1087     Br  0.18585998  0.66096165  0.93939063    -0.00100
Br1088     Br  0.10698752  0.66992699  0.06777484    -0.04500
C1089       C  0.39848615  0.49807462  0.89378632    -0.11900
C1090       C  0.39571480  0.51907126  0.87164330     0.03600
C1091       C  0.37412728  0.52037668  0.85107856    -0.12400
C1092       C  0.35543062  0.00070438  0.85179995     0.18400
C1093       C  0.35888186  0.97908807  0.87276530    -0.09500
C1094       C  0.38005010  0.97814779  0.89395310    -0.02400
H1095       H  0.37171614  0.53694996  0.83481644     0.05000
C1096       C  0.33204793  0.00308225  0.83131110     0.20400
H1097       H  0.38210370  0.96182854  0.91071480     0.10100
C1098       C  0.32895502  0.98658664  0.80381184    -0.15800
C1099       C  0.30589928  0.98590196  0.78612579     0.03100
C1100       C  0.28510317  0.00190112  0.79608608    -0.11100
C1101       C  0.28874279  0.51921973  0.82307870    -0.01100
C1102       C  0.31202612  0.52009185  0.84038875    -0.06300
H1103       H  0.34438119  0.97350627  0.79671257     0.06200
H1104       H  0.27337987  0.53214674  0.83079738     0.09500
Br1105     Br  0.33484626  0.95070676  0.87381382    -0.06000
Br1106     Br  0.41997964  0.54721263  0.87010263    -0.03000
Br1107     Br  0.30405198  0.96091081  0.75065398    -0.00100
Br1108     Br  0.31554325  0.54417540  0.87687304    -0.04500
C1109       C  0.07169736  0.50107675  0.89202382    -0.11900
C1110       C  0.07490070  0.98155510  0.86742428     0.03600
C1111       C  0.09641107  0.98214655  0.84665681    -0.12400
C1112       C  0.11478853  0.00206924  0.84984476     0.18400
C1113       C  0.11064039  0.52241600  0.87302019    -0.09500
C1114       C  0.08950578  0.52154769  0.89413876    -0.02400
H1115       H  0.09935362  0.96643504  0.82889813     0.05000
C1116       C  0.13922199  0.00016082  0.83118695     0.20400
H1117       H  0.08703404  0.53690600  0.91251684     0.10100
C1118       C  0.13941975  0.50207179  0.79665319    -0.15800
C1119       C  0.16250169  0.50101371  0.77884771     0.03100
C1120       C  0.18639481  0.99868525  0.79573475    -0.11100
C1121       C  0.18552038  0.99511880  0.83033281    -0.01100
C1122       C  0.16245498  0.99568815  0.84779445    -0.06300
H1123       H  0.12150399  0.50451728  0.78346365     0.06200
H1124       H  0.20246655  0.99110114  0.84454850     0.09500
Br1125     Br  0.13344567  0.55172386  0.87702210    -0.06000
Br1126     Br  0.05180048  0.95257044  0.86303775    -0.03000
Br1127     Br  0.15951945  0.50244675  0.73145563    -0.00100
Br1128     Br  0.16359800  0.98895436  0.89448121    -0.04500
C1129       C  0.50076234  0.69992361  0.79376865    -0.11900
C1130       C  0.01734221  0.69140082  0.81909187     0.03600
C1131       C  0.01147970  0.66893959  0.83713801    -0.12400
C1132       C  0.48939490  0.65432758  0.83016748     0.18400
C1133       C  0.47252608  0.66297141  0.80531649    -0.09500
C1134       C  0.47813272  0.68581025  0.78759540    -0.02400
H1135       H  0.02440680  0.66262081  0.85650054     0.05000
C1136       C  0.48453691  0.63031929  0.84955295     0.20400
H1137       H  0.46530629  0.69194328  0.76810414     0.10100
C1138       C  0.46903641  0.63190089  0.87769730    -0.15800
C1139       C  0.46695465  0.61071445  0.89929986     0.03100
C1140       C  0.48089415  0.58735899  0.89314117    -0.11100
C1141       C  0.49520504  0.58534188  0.86379529    -0.01100
C1142       C  0.49708315  0.60657840  0.84212294    -0.06300
H1143       H  0.45897888  0.64996040  0.88331037     0.06200
H1144       H  0.50577736  0.56757656  0.85830168     0.09500
Br1145     Br  0.44249842  0.64334417  0.79372693    -0.06000
Br1146     Br  0.04812500  0.70995058  0.83032922    -0.03000
Br1147     Br  0.44419267  0.61487258  0.93624506    -0.00100
Br1148     Br  0.51739056  0.60266580  0.80293512    -0.04500
C1149       C  0.49390178  0.90843890  0.89298348    -0.11900
C1150       C  0.01465561  0.89073771  0.89519094     0.03600
C1151       C  0.01589913  0.86873120  0.87431163    -0.12400
C1152       C  0.49689467  0.86390830  0.85053485     0.18400
C1153       C  0.47653075  0.88193749  0.84748722    -0.09500
C1154       C  0.47518972  0.90400225  0.86854381    -0.02400
H1155       H  0.03191203  0.85534050  0.87650872     0.05000
C1156       C  0.49887901  0.83996781  0.82931949     0.20400
H1157       H  0.45906902  0.91726013  0.86650566     0.10100
C1158       C  0.49388074  0.81526996  0.84293209    -0.15800
C1159       C  0.49710400  0.79214472  0.82421835     0.03100
C1160       C  0.50519023  0.79345302  0.79092095    -0.11100
C1161       C  0.01021927  0.81829949  0.77753558    -0.01100
C1162       C  0.00744126  0.84125872  0.79640302    -0.06300
H1163       H  0.48803719  0.81394971  0.86855759     0.06200
H1164       H  0.01679248  0.81989649  0.75224270     0.09500
Br1165     Br  0.44964653  0.87654892  0.81581514    -0.06000
Br1166     Br  0.04266770  0.89634289  0.92502488    -0.03000
Br1167     Br  0.49273720  0.75955704  0.84667489    -0.00100
Br1168     Br  0.01723592  0.87378771  0.77678410    -0.04500
C1169       C  0.46086075  0.74610455  0.71203476    -0.11900
C1170       C  0.44983963  0.76981093  0.70151984     0.03600
C1171       C  0.42674227  0.76960644  0.68366350    -0.12400
C1172       C  0.41417896  0.74594030  0.67623617     0.18400
C1173       C  0.42496804  0.72230565  0.68765136    -0.09500
C1174       C  0.44815038  0.72254769  0.70516299    -0.02400
H1175       H  0.41893585  0.78790412  0.67475355     0.05000
C1176       C  0.39129701  0.74589583  0.65410703     0.20400
H1177       H  0.45662505  0.70417729  0.71265911     0.10100
C1178       C  0.39306777  0.73335816  0.62322918    -0.15800
C1179       C  0.37228163  0.73261660  0.60137168     0.03100
C1180       C  0.34893149  0.74515865  0.60982846    -0.11100
C1181       C  0.34695665  0.75713347  0.64116074    -0.01100
C1182       C  0.36791841  0.75785437  0.66304711    -0.06300
H1183       H  0.41082634  0.72389187  0.61611369     0.06200
H1184       H  0.32919966  0.76636053  0.64846809     0.09500
Br1185     Br  0.40882417  0.68909872  0.67984736    -0.06000
Br1186     Br  0.46623152  0.80275944  0.70994521    -0.03000
Br1187     Br  0.37692740  0.71259273  0.56132085    -0.00100
Br1188     Br  0.36355114  0.77501915  0.70500709    -0.04500
C1189       C  0.17128295  0.74549493  0.60597353    -0.11900
C1190       C  0.17113108  0.75842606  0.63708658     0.03600
C1191       C  0.14884608  0.75835466  0.65667890    -0.12400
C1192       C  0.12648028  0.74548230  0.64604649     0.18400
C1193       C  0.12671912  0.73230814  0.61536526    -0.09500
C1194       C  0.14878360  0.73249349  0.59571259    -0.02400
H1195       H  0.14892911  0.76848119  0.68032581     0.05000
C1196       C  0.10329966  0.74518614  0.66753844     0.20400
H1197       H  0.14832274  0.72222485  0.57217140     0.10100
C1198       C  0.08343218  0.76316238  0.66231240    -0.15800
C1199       C  0.06113793  0.76289606  0.68175975     0.03100
C1200       C  0.05780324  0.74371351  0.70677838    -0.11100
C1201       C  0.07830835  0.72607730  0.71207058    -0.01100
C1202       C  0.10068129  0.72680115  0.69292187    -0.06300
H1203       H  0.08536303  0.77766137  0.64307723     0.06200
H1204       H  0.07779425  0.71192134  0.73162282     0.09500
Br1205     Br  0.09744676  0.71327907  0.59954194    -0.06000
Br1206     Br  0.20007484  0.77772062  0.65347383    -0.03000
Br1207     Br  0.03640907  0.78996472  0.67296758    -0.00100
Br1208     Br  0.12752175  0.70229938  0.70241923    -0.04500
C1209       C  0.25832898  0.65615895  0.60602513    -0.11900
C1210       C  0.26654573  0.63034596  0.59762774     0.03600
C1211       C  0.26236245  0.60951589  0.61932007    -0.12400
C1212       C  0.25031858  0.61340107  0.64979551     0.18400
C1213       C  0.24269014  0.63892256  0.65885562    -0.09500
C1214       C  0.24667730  0.65996006  0.63715451    -0.02400
H1215       H  0.26872460  0.59002250  0.61240702     0.05000
C1216       C  0.24667657  0.59055357  0.67195219     0.20400
H1217       H  0.24008701  0.67926866  0.64444030     0.10100
C1218       C  0.26510006  0.58514218  0.69628102    -0.15800
C1219       C  0.26262460  0.56340952  0.71710324     0.03100
C1220       C  0.24162786  0.54622967  0.71334391    -0.11100
C1221       C  0.22326350  0.55169887  0.68888824    -0.01100
C1222       C  0.22557243  0.57359394  0.66842919    -0.06300
H1223       H  0.28130155  0.59815657  0.69941405     0.06200
H1224       H  0.20676404  0.53903337  0.68604005     0.09500
Br1225     Br  0.22630196  0.64567519  0.70043825    -0.06000
Br1226     Br  0.28458075  0.62146198  0.55777181    -0.03000
Br1227     Br  0.28724699  0.55975423  0.75189471    -0.00100
Br1228     Br  0.19890508  0.58002414  0.63688120    -0.04500
C1229       C  0.25848834  0.83788228  0.61166167    -0.11900
C1230       C  0.27501801  0.84058007  0.63918019     0.03600
C1231       C  0.27355709  0.86299259  0.65965476    -0.12400
C1232       C  0.25556752  0.88295126  0.65358987     0.18400
C1233       C  0.23898402  0.88009521  0.62619339    -0.09500
C1234       C  0.24066299  0.85795129  0.60562386    -0.02400
H1235       H  0.28670714  0.86497172  0.68027623     0.05000
C1236       C  0.25402885  0.90649376  0.67587767     0.20400
H1237       H  0.22777308  0.85636120  0.58465849     0.10100
C1238       C  0.25831740  0.93162302  0.66299901    -0.15800
C1239       C  0.25417104  0.95436425  0.68215673     0.03100
C1240       C  0.24531245  0.95235478  0.71502171    -0.11100
C1241       C  0.24242854  0.92710265  0.72837768    -0.01100
C1242       C  0.24695511  0.90442420  0.70938748    -0.06300
H1243       H  0.26427450  0.93357954  0.63749322     0.06200
H1244       H  0.23638061  0.92495740  0.75382205     0.09500
Br1245     Br  0.21303929  0.90547539  0.61608852    -0.06000
Br1246     Br  0.30103432  0.81534858  0.64873899    -0.03000
Br1247     Br  0.25919625  0.98742073  0.66107924    -0.00100
Br1248     Br  0.24220336  0.87111067  0.73014728    -0.04500
C1249       C  0.34922137  0.66454107  0.49061798    -0.11900
C1250       C  0.37151092  0.66852257  0.47148366     0.03600
C1251       C  0.39001390  0.64877535  0.46939273    -0.12400
C1252       C  0.38671477  0.62515394  0.48612871     0.18400
C1253       C  0.36453547  0.62101235  0.50483048    -0.09500
C1254       C  0.34599165  0.64057575  0.50680831    -0.02400
H1255       H  0.40712608  0.65188348  0.45483943     0.05000
C1256       C  0.40711593  0.60543256  0.48516385     0.20400
H1257       H  0.32913972  0.63719740  0.52156946     0.10100
C1258       C  0.42471916  0.60464288  0.51133041    -0.15800
C1259       C  0.44391888  0.58565492  0.51191041     0.03100
C1260       C  0.44592968  0.56758941  0.48560798    -0.11100
C1261       C  0.42815002  0.56824136  0.45956469    -0.01100
C1262       C  0.40866341  0.58695577  0.45929039    -0.06300
H1263       H  0.42319288  0.61855787  0.53160837     0.06200
H1264       H  0.42935162  0.55399792  0.43961433     0.09500
Br1265     Br  0.35895461  0.58899774  0.52822714    -0.06000
Br1266     Br  0.37751712  0.69967687  0.44647909    -0.03000
Br1267     Br  0.46611462  0.58418814  0.54972733    -0.00100
Br1268     Br  0.38416697  0.58613581  0.42386322    -0.04500
C1269       C  0.17756270  0.66016745  0.49693343    -0.11900
C1270       C  0.15100844  0.66637003  0.49617293     0.03600
C1271       C  0.13297856  0.64631540  0.49429722    -0.12400
C1272       C  0.14040771  0.62001063  0.49360582     0.18400
C1273       C  0.16662097  0.61365886  0.49427050    -0.09500
C1274       C  0.18486061  0.63360745  0.49609678    -0.02400
H1275       H  0.11280584  0.65128567  0.49341207     0.05000
C1276       C  0.12019033  0.59984175  0.49200001     0.20400
H1277       H  0.20490082  0.62815276  0.49670854     0.10100
C1278       C  0.11786045  0.58403925  0.46359495    -0.15800
C1279       C  0.09772828  0.56615765  0.46047201     0.03100
C1280       C  0.07931478  0.56431663  0.48573795    -0.11100
C1281       C  0.08162334  0.58009063  0.51408840    -0.01100
C1282       C  0.10195139  0.59763586  0.51748624    -0.06300
H1283       H  0.13158854  0.58581772  0.44369269     0.06200
H1284       H  0.06778389  0.57838163  0.53387358     0.09500
Br1285     Br  0.17863824  0.57816651  0.49330009    -0.06000
Br1286     Br  0.13692319  0.70126654  0.49744808    -0.03000
Br1287     Br  0.09592855  0.54472789  0.42133013    -0.00100
Br1288     Br  0.10452707  0.61741958  0.55794349    -0.04500
C1289       C  0.17286105  0.83339276  0.49756657    -0.11900
C1290       C  0.15089989  0.82909920  0.47767788     0.03600
C1291       C  0.13193603  0.84831410  0.47569788    -0.12400
C1292       C  0.13431784  0.87200120  0.49299517     0.18400
C1293       C  0.15596861  0.87637903  0.51307915    -0.09500
C1294       C  0.17506889  0.85716506  0.51517529    -0.02400
H1295       H  0.11533254  0.84493345  0.46012235     0.05000
C1296       C  0.11393918  0.89181999  0.48947430     0.20400
H1297       H  0.19170540  0.86083503  0.53058153     0.10100
C1298       C  0.09637060  0.89552122  0.51529895    -0.15800
C1299       C  0.07645234  0.91366477  0.51231181     0.03100
C1300       C  0.07429589  0.92864981  0.48339632    -0.11100
C1301       C  0.09154954  0.92469290  0.45740405    -0.01100
C1302       C  0.11111903  0.90619176  0.46007197    -0.06300
H1303       H  0.09809895  0.88415721  0.53769967     0.06200
H1304       H  0.08984391  0.93618116  0.43509696     0.09500
Br1305     Br  0.16058714  0.90860982  0.53706207    -0.06000
Br1306     Br  0.14624080  0.79845898  0.45044883    -0.03000
Br1307     Br  0.05274730  0.91765726  0.54822080    -0.00100
Br1308     Br  0.13360370  0.90153815  0.42305432    -0.04500
C1309       C  0.34429571  0.83818330  0.49798257    -0.11900
C1310       C  0.34106038  0.86366952  0.51130252     0.03600
C1311       C  0.35993536  0.88262057  0.50621805    -0.12400
C1312       C  0.38216973  0.87653361  0.48844584     0.18400
C1313       C  0.38569724  0.85113891  0.47578983    -0.09500
C1314       C  0.36681543  0.83226218  0.48041194    -0.02400
H1315       H  0.35758019  0.90201518  0.51684980     0.05000
C1316       C  0.40259000  0.89616109  0.48588564     0.20400
H1317       H  0.36973667  0.81288652  0.46999133     0.10100
C1318       C  0.42209851  0.89613001  0.50967908    -0.15800
C1319       C  0.44204367  0.91418857  0.50819642     0.03100
C1320       C  0.44263189  0.93258041  0.48245863    -0.11100
C1321       C  0.42307249  0.93262072  0.45859961    -0.01100
C1322       C  0.40307679  0.91450908  0.46013880    -0.06300
H1323       H  0.42173250  0.88200879  0.52952246     0.06200
H1324       H  0.42339026  0.94680569  0.43883060     0.09500
Br1325     Br  0.41626599  0.84140145  0.45257858    -0.06000
Br1326     Br  0.31255330  0.87333503  0.53880624    -0.03000
Br1327     Br  0.46762474  0.91339483  0.54232283    -0.00100
Br1328     Br  0.37701740  0.91537408  0.42666388    -0.04500
C1329       C  0.17593736  0.74517232  0.38797413    -0.11900
C1330       C  0.16055527  0.72268020  0.38429159     0.03600
C1331       C  0.13912793  0.72311008  0.36323546    -0.12400
C1332       C  0.13288451  0.74569534  0.34524784     0.18400
C1333       C  0.14919638  0.76763181  0.34757675    -0.09500
C1334       C  0.17045813  0.76725667  0.36883795    -0.02400
H1335       H  0.12705973  0.70593004  0.36131441     0.05000
C1336       C  0.10865798  0.74658885  0.32568750     0.20400
H1337       H  0.18232723  0.78455140  0.37114767     0.10100
C1338       C  0.08903854  0.76362460  0.33561044    -0.15800
C1339       C  0.06589121  0.76517265  0.31805404     0.03100
C1340       C  0.06104394  0.74813470  0.29068670    -0.11100
C1341       C  0.08153234  0.73196638  0.28008531    -0.01100
C1342       C  0.10498224  0.73123946  0.29707537    -0.06300
H1343       H  0.09195910  0.77622166  0.35698487     0.06200
H1344       H  0.08017007  0.72046875  0.25768473     0.09500
Br1345     Br  0.14332801  0.79843963  0.32185275    -0.06000
Br1346     Br  0.16873054  0.69080621  0.40685599    -0.03000
Br1347     Br  0.04270082  0.79209138  0.33260905    -0.00100
Br1348     Br  0.13218228  0.71051924  0.27869432    -0.04500
C1349       C  0.34981622  0.75062536  0.39335158    -0.11900
C1350       C  0.35073350  0.73483474  0.36450043     0.03600
C1351       C  0.37284358  0.73471268  0.34479975    -0.12400
C1352       C  0.39437744  0.74954600  0.35386545     0.18400
C1353       C  0.39355331  0.76501217  0.38272099    -0.09500
C1354       C  0.37138612  0.76569980  0.40189825    -0.02400
H1355       H  0.37354993  0.72239519  0.32287723     0.05000
C1356       C  0.41778881  0.74846368  0.33339828     0.20400
H1357       H  0.37123302  0.77769867  0.42411817     0.10100
C1358       C  0.42010921  0.76530206  0.30643396    -0.15800
C1359       C  0.44275657  0.76625813  0.28793806     0.03100
C1360       C  0.46346318  0.74945067  0.29579230    -0.11100
C1361       C  0.46072853  0.73231502  0.32267392    -0.01100
C1362       C  0.43839463  0.73204505  0.34168865    -0.06300
H1363       H  0.40451600  0.77848766  0.30052070     0.06200
H1364       H  0.47619599  0.71921313  0.32929097     0.09500
Br1365     Br  0.42268026  0.78464728  0.39761586    -0.06000
Br1366     Br  0.32372676  0.71106479  0.35266098    -0.03000
Br1367     Br  0.44460996  0.79298442  0.25501614    -0.00100
Br1368     Br  0.43724740  0.70971722  0.37958766    -0.04500
C1369       C  0.26207174  0.84004466  0.39381320    -0.11900
C1370       C  0.25229137  0.83801243  0.36117494     0.03600
C1371       C  0.25132811  0.86027626  0.34099419    -0.12400
C1372       C  0.26004448  0.88468925  0.35254327     0.18400
C1373       C  0.27055363  0.88656936  0.38447444    -0.09500
C1374       C  0.27158431  0.86448119  0.40466574    -0.02400
H1375       H  0.24292310  0.85873663  0.31653552     0.05000
C1376       C  0.25544211  0.90853236  0.33262878     0.20400
H1377       H  0.27949439  0.86663249  0.42933216     0.10100
C1378       C  0.23267268  0.92248821  0.33763034    -0.15800
C1379       C  0.22724877  0.94510936  0.31962531     0.03100
C1380       C  0.24476628  0.95423165  0.29571596    -0.11100
C1381       C  0.26803095  0.94066485  0.29148623    -0.01100
C1382       C  0.27340991  0.91794198  0.30970107    -0.06300
H1383       H  0.21901077  0.91572227  0.35578009     0.06200
H1384       H  0.28169625  0.94725669  0.27325321     0.09500
Br1385     Br  0.28277696  0.91927578  0.40198207    -0.06000
Br1386     Br  0.23802044  0.80621164  0.34337871    -0.03000
Br1387     Br  0.19593317  0.96314290  0.32986092    -0.00100
Br1388     Br  0.30527102  0.90011143  0.30250595    -0.04500
C1389       C  0.26514231  0.66134089  0.38746694    -0.11900
C1390       C  0.28434247  0.64189160  0.38642996     0.03600
C1391       C  0.28216006  0.62070113  0.36429504    -0.12400
C1392       C  0.26099458  0.61840880  0.34294896     0.18400
C1393       C  0.24207500  0.63818991  0.34358976    -0.09500
C1394       C  0.24446380  0.65954491  0.36538180    -0.02400
H1395       H  0.29681579  0.60566689  0.36414947     0.05000
C1396       C  0.25778836  0.59413047  0.32269748     0.20400
H1397       H  0.22939073  0.67413475  0.36627986     0.10100
C1398       C  0.25383781  0.57030831  0.33896323    -0.15800
C1399       C  0.24886429  0.54720171  0.32118707     0.03100
C1400       C  0.24778014  0.54751607  0.28641378    -0.11100
C1401       C  0.25254131  0.57118605  0.26998072    -0.01100
C1402       C  0.25778621  0.59432018  0.28779701    -0.06300
H1403       H  0.25384444  0.56984517  0.36574973     0.06200
H1404       H  0.25199371  0.57168957  0.24320096     0.09500
Br1405     Br  0.21137625  0.63581884  0.31756726    -0.06000
Br1406     Br  0.31409702  0.64365544  0.41429697    -0.03000
Br1407     Br  0.24172572  0.51621890  0.34575199    -0.00100
Br1408     Br  0.26516396  0.62558074  0.26357088    -0.04500
O1409       O  0.76353986  0.20620708  0.40378190    -0.80000
O1410       O  0.75953298  0.20253215  0.59368634    -0.81600
O1411       O  0.80560369  0.17610855  0.49542771    -0.78600
O1412       O  0.72151967  0.17311839  0.49736597    -0.77000
O1413       O  0.69072025  0.20455628  0.49854654    -0.78800
O1414       O  0.83547384  0.20869840  0.49571855    -0.79700
O1415       O  0.76170831  0.17277935  0.55126947    -0.81100
O1416       O  0.76519013  0.17457368  0.44363968    -0.81300
Eu1417     Eu  0.76288709  0.19590857  0.49834575     2.39200
O1418       O  0.73634629  0.22156257  0.53255766    -0.88900
O1419       O  0.78791165  0.22372079  0.46588748    -0.92500
C1420       C  0.76493982  0.18209247  0.41322784     1.02200
C1421       C  0.76022826  0.17864191  0.58228608     1.02100
C1422       C  0.82887111  0.18445102  0.49395879     1.02000
C1423       C  0.69787868  0.18053134  0.49780375     0.99900
H1424       H  0.79861711  0.21111369  0.54725404     0.29600
O1425       O  0.78761621  0.22224567  0.53425801    -1.01200
H1426       H  0.72642136  0.21073580  0.45039739     0.29600
O1427       O  0.73671674  0.22192930  0.46440228    -1.03800
O1428       O  0.76093663  0.29183031  0.59712316    -0.81000
O1429       O  0.76222539  0.29409946  0.40691467    -0.80500
O1430       O  0.83374179  0.24885609  0.55502022    -0.79000
O1431       O  0.68760035  0.24620197  0.55148966    -0.82300
O1432       O  0.68938659  0.24566060  0.44382765    -0.80200
O1433       O  0.83418009  0.25101593  0.44779540    -0.78800
O1434       O  0.80091425  0.32457541  0.50122338    -0.80300
O1435       O  0.71706269  0.32227256  0.50106009    -0.82300
O1436       O  0.83247063  0.29360938  0.50146331    -0.79000
O1437       O  0.68746871  0.28946433  0.49887172    -0.81700
O1438       O  0.80392910  0.24668818  0.59625948    -0.77400
O1439       O  0.80491816  0.24952650  0.40563269    -0.77500
O1440       O  0.71988273  0.24856437  0.40335179    -0.77100
O1441       O  0.71672256  0.24676981  0.59386546    -0.80600
O1442       O  0.75963540  0.32283806  0.55646506    -0.80000
O1443       O  0.76044281  0.32439651  0.44876909    -0.78300
Eu1444     Eu  0.76076992  0.24764833  0.56938477     2.39800
Eu1445     Eu  0.76199532  0.24970542  0.43151014     2.39600
Eu1446     Eu  0.81245035  0.25024734  0.50123018     2.38400
Eu1447     Eu  0.71029198  0.24763132  0.49864237     2.39900
Eu1448     Eu  0.75977039  0.30161216  0.50187755     2.39800
O1449       O  0.73506754  0.27542941  0.46575468    -0.92800
O1450       O  0.78590606  0.27546545  0.53592517    -0.91700
C1451       C  0.76014635  0.31593777  0.58709656     1.02400
C1452       C  0.76148355  0.31798815  0.41784336     1.01100
C1453       C  0.82738215  0.24700162  0.58567291     1.00500
C1454       C  0.69342862  0.24625866  0.58252336     1.02500
C1455       C  0.69645100  0.24650489  0.41324324     1.01400
C1456       C  0.82811575  0.25022782  0.41687821     1.00300
C1457       C  0.82462015  0.31755996  0.50092940     1.00400
C1458       C  0.69379017  0.31382499  0.49939209     1.03000
H1459       H  0.79721364  0.28761381  0.45432876     0.30300
O1460       O  0.78651336  0.27632177  0.46741870    -1.04900
H1461       H  0.72347158  0.28453808  0.54831405     0.32400
O1462       O  0.73473228  0.27395236  0.53478718    -1.07500
N1463       N  0.54972808  0.99760558  0.48042858    -0.36500
N1464       N  0.00932103  0.45867699  0.47958001    -0.57100
N1465       N  0.97161138  0.99967911  0.48129925    -0.36500
N1466       N  0.01199737  0.03881850  0.48453058    -0.57100
C1467       C  0.56325320  0.47569252  0.48711909     0.27100
C1468       C  0.56475439  0.01822168  0.48849050     0.27100
C1469       C  0.95698440  0.47867805  0.48851870     0.27100
C1470       C  0.95834486  0.02114425  0.49072051     0.27100
C1471       C  0.52956987  0.44298467  0.47359493     0.35700
C1472       C  0.98825205  0.44424257  0.47326043     0.35700
C1473       C  0.53300719  0.05363317  0.47953509     0.35700
C1474       C  0.99161668  0.05461166  0.47977156     0.35700
C1475       C  0.58727515  0.48247661  0.49912018    -0.21800
C1476       C  0.58823560  0.00934600  0.49992398    -0.21800
C1477       C  0.93414213  0.48689256  0.50266007    -0.21800
C1478       C  0.93497763  0.01378594  0.50395320    -0.21800
C1479       C  0.52139627  0.41842800  0.46331620    -0.22900
C1480       C  0.99510997  0.41926699  0.46292279    -0.22900
C1481       C  0.52598376  0.07905391  0.47193836    -0.22900
C1482       C  0.99968270  0.07965402  0.47194176    -0.22900
C1483       C  0.55509124  0.44978356  0.48079430    -0.18200
C1484       C  0.55837794  0.04480349  0.48392628    -0.18200
C1485       C  0.96598082  0.04718760  0.48524314    -0.18200
C1486       C  0.96316587  0.45245800  0.48075500    -0.18200
H1487       H  0.60265802  0.46943668  0.50619194     0.14700
H1488       H  0.60446134  0.02100933  0.50780452     0.14700
H1489       H  0.91839138  0.47480429  0.51077381     0.14700
H1490       H  0.91998802  0.02649203  0.51327627     0.14700
H1491       H  0.53313551  0.40151877  0.45758714     0.13000
H1492       H  0.98249736  0.40309887  0.45696389     0.13000
H1493       H  0.53849370  0.09547088  0.46721278     0.13000
H1494       H  0.98786962  0.09667752  0.46737767     0.13000
H1495       H  0.53247400  0.99845305  0.46764921     0.26200
H1496       H  0.98815883  0.99960935  0.46704156     0.26200
O1497       O  0.98826495  0.45394538  0.90707983    -0.80000
O1498       O  0.98716321  0.45500086  0.09713846    -0.81600
O1499       O  0.53046578  0.42717495  0.00003569    -0.78600
O1500       O  0.94608371  0.42327417  0.00421124    -0.77000
O1501       O  0.91429094  0.45393386  0.00469860    -0.78800
O1502       O  0.55999491  0.45988241  0.99987680    -0.79700
O1503       O  0.98998282  0.42445487  0.05535990    -0.81100
O1504       O  0.99062867  0.42350643  0.94827974    -0.81300
Eu1505     Eu  0.98742087  0.44623084  0.00193896     2.39200
O1506       O  0.96112266  0.47166422  0.03676409    -0.88900
O1507       O  0.51205714  0.47344852  0.96830179    -0.92500
C1508       C  0.99069859  0.43011984  0.91753689     1.02200
C1509       C  0.98927779  0.43119134  0.08612661     1.02100
C1510       C  0.55374239  0.43559294  0.99924968     1.02000
C1511       C  0.92227822  0.43011319  0.00533925     0.99900
H1512       H  0.52353961  0.46305268  0.04919246     0.29600
O1513       O  0.51221564  0.47378639  0.03604922    -1.01200
H1514       H  0.94984613  0.45946122  0.95446182     0.29600
O1515       O  0.96025582  0.47095611  0.96786140    -1.03800
O1516       O  0.98392043  0.04367555  0.09734144    -0.81000
O1517       O  0.98336641  0.04190170  0.90731815    -0.80500
O1518       O  0.55836069  0.49969309  0.05584489    -0.79000
O1519       O  0.91333214  0.49667820  0.05726053    -0.82300
O1520       O  0.91263419  0.49640570  0.94903474    -0.80200
O1521       O  0.55785648  0.50162634  0.94755939    -0.78800
O1522       O  0.52508717  0.07474729  0.00425474    -0.80300
O1523       O  0.94192501  0.07161338  0.00143055    -0.82300
O1524       O  0.55697678  0.04410741  0.00476134    -0.79000
O1525       O  0.91215102  0.03900450  0.00215674    -0.81700
O1526       O  0.52908059  0.49925094  0.09790483    -0.77400
O1527       O  0.52760003  0.99845571  0.90657600    -0.77500
O1528       O  0.94263174  0.99809197  0.90777375    -0.77100
O1529       O  0.94322708  0.49742374  0.09872873    -0.80600
O1530       O  0.98214099  0.07413813  0.05618318    -0.80000
O1531       O  0.98243364  0.07282095  0.94859815    -0.78300
Eu1532     Eu  0.98591077  0.49915361  0.07150326     2.39800
Eu1533     Eu  0.98534678  0.49819520  0.93376787     2.39600
Eu1534     Eu  0.53683562  0.50107545  0.00204302     2.38400
Eu1535     Eu  0.93440403  0.49690411  0.00292017     2.39900
Eu1536     Eu  0.98412789  0.05138672  0.00264134     2.39800
O1537       O  0.95921649  0.02375962  0.96890692    -0.92800
O1538       O  0.51079798  0.02647187  0.03714338    -0.91700
C1539       C  0.98254758  0.06760139  0.08693912     1.02400
C1540       C  0.98210949  0.06590846  0.91783462     1.01100
C1541       C  0.55233709  0.49883507  0.08672377     1.00500
C1542       C  0.91979947  0.49722106  0.08809820     1.02500
C1543       C  0.91932364  0.99744420  0.91836289     1.01400
C1544       C  0.55098709  0.00009027  0.91686946     1.00300
C1545       C  0.54883376  0.06790043  0.00546701     1.00400
C1546       C  0.91867480  0.06328705  0.00137343     1.03000
H1547       H  0.52086891  0.03761470  0.95416431     0.30300
O1548       O  0.51049920  0.02624705  0.96764372    -1.04900
H1549       H  0.94805983  0.03515859  0.05033796     0.32400
O1550       O  0.95924950  0.02445061  0.03691773    -1.07500
N1551       N  0.77458016  0.24726028  0.00460156    -0.36500
N1552       N  0.73435939  0.20813079  0.00212401    -0.57100
N1553       N  0.69667461  0.24968399  0.00159557    -0.36500
N1554       N  0.73692411  0.28875421  0.00087976    -0.57100
C1555       C  0.78847864  0.22531960  0.99930597     0.27100
C1556       C  0.78990219  0.26779648  0.99779028     0.27100
C1557       C  0.68183503  0.22882559  0.99394313     0.27100
C1558       C  0.68298149  0.27138097  0.99452772     0.27100
C1559       C  0.75435806  0.19251628  0.00955102     0.35700
C1560       C  0.71309757  0.19373470  0.00699288     0.35700
C1561       C  0.75804336  0.30360676  0.00521507     0.35700
C1562       C  0.71666706  0.30488228  0.00490719     0.35700
C1563       C  0.81301784  0.23199262  0.98937981    -0.21800
C1564       C  0.81390164  0.25881904  0.98839447    -0.21800
C1565       C  0.65841688  0.23736329  0.98189160    -0.21800
C1566       C  0.65909113  0.26426316  0.98241218    -0.21800
C1567       C  0.74582871  0.16795107  0.01872211    -0.22900
C1568       C  0.71959197  0.16876431  0.01726429    -0.22900
C1569       C  0.75121578  0.32942323  0.01127970    -0.22900
C1570       C  0.72493872  0.33022759  0.01116295    -0.22900
C1571       C  0.78019260  0.19956405  0.00556310    -0.18200
C1572       C  0.78338875  0.29442547  0.00190092    -0.18200
C1573       C  0.69088049  0.29738107  0.00071066    -0.18200
C1574       C  0.68802806  0.20242688  0.00030017    -0.18200
H1575       H  0.82882752  0.21895214  0.98392265     0.14700
H1576       H  0.83046806  0.27039267  0.98192778     0.14700
H1577       H  0.64233207  0.22544190  0.97414101     0.14700
H1578       H  0.64363964  0.27710407  0.97502526     0.14700
H1579       H  0.75730690  0.15115137  0.02544116     0.13000
H1580       H  0.70679547  0.15272536  0.02269593     0.13000
H1581       H  0.76384090  0.34596701  0.01508139     0.13000
H1582       H  0.71327392  0.34754395  0.01477210     0.13000
H1583       H  0.75686475  0.24817804  0.01612968     0.26200
H1584       H  0.71366533  0.24924334  0.01495759     0.26200
C1585       C  0.53527295  0.24838653  0.27169860     0.86600
C1586       C  0.53019013  0.22525255  0.24765939    -0.53700
C1587       C  0.00744951  0.22666764  0.23112093     0.09500
C1588       C  0.99145088  0.25107567  0.23990966     0.20400
C1589       C  0.53216674  0.27290515  0.25036446    -0.54400
C1590       C  0.00929617  0.27469008  0.23396179     0.09600
C1591       C  0.01147185  0.24807011  0.29415383    -0.53900
C1592       C  0.98848864  0.24997733  0.27786146     0.10200
H1593       H  0.54234701  0.20817860  0.24499829     0.14700
H1594       H  0.97306078  0.25177955  0.22617279     0.00400
H1595       H  0.54700965  0.28767498  0.24840692     0.15000
H1596       H  0.01274008  0.24629402  0.32083394     0.14800
C1597       C  0.71327750  0.49798190  0.22932725     0.86600
C1598       C  0.71585227  0.47576381  0.25496938    -0.53700
C1599       C  0.73800024  0.47610749  0.27298431     0.09500
C1600       C  0.75604626  0.49873427  0.26359284     0.20400
C1601       C  0.71765046  0.02332484  0.24934803    -0.54400
C1602       C  0.73992972  0.02394124  0.26701447     0.09600
C1603       C  0.73764898  0.49461972  0.20826846    -0.53900
C1604       C  0.75993172  0.49527080  0.22612135     0.10200
H1605       H  0.70283636  0.45947463  0.25728546     0.14700
H1606       H  0.77422703  0.49921117  0.27790043     0.00400
H1607       H  0.70430317  0.03965499  0.24921251     0.15000
H1608       H  0.73737601  0.49245588  0.18152826     0.14800
C1609       C  0.53345223  0.24336240  0.72863111     0.86600
C1610       C  0.53191525  0.26774872  0.75102311    -0.53700
C1611       C  0.01031753  0.26965075  0.76998752     0.09500
C1612       C  0.99180111  0.24628243  0.76486052     0.20400
C1613       C  0.52984144  0.22020869  0.75255817    -0.54400
C1614       C  0.00817273  0.22164843  0.77146499     0.09600
C1615       C  0.00830811  0.24325621  0.70864113    -0.53900
C1616       C  0.98667112  0.24534349  0.72733641     0.10200
H1617       H  0.54680722  0.28257235  0.75147980     0.14700
H1618       H  0.97398389  0.24749586  0.77971752     0.00400
H1619       H  0.54210953  0.20315412  0.75366762     0.15000
H1620       H  0.00762208  0.24164749  0.68185545     0.14800
C1621       C  0.71220171  0.49939788  0.77703982     0.86600
C1622       C  0.71480516  0.02345105  0.75481489    -0.53700
C1623       C  0.73667499  0.02419285  0.73647779     0.09500
C1624       C  0.75454084  0.50042729  0.74221282     0.20400
C1625       C  0.71580996  0.47564892  0.75400661    -0.54400
C1626       C  0.73784811  0.47571911  0.73574862     0.09600
C1627       C  0.73714860  0.50011453  0.79794771    -0.53900
C1628       C  0.75930162  0.50045496  0.77990476     0.10200
H1629       H  0.70053869  0.03892619  0.75389616     0.14700
H1630       H  0.77236453  0.50134530  0.72749367     0.00400
H1631       H  0.70213605  0.45965845  0.75286757     0.15000
H1632       H  0.73794831  0.50088664  0.82464032     0.14800
C1633       C  0.57414353  0.49737929  0.11035125    -0.11900
C1634       C  0.59626251  0.48251442  0.10274221     0.03600
C1635       C  0.61812469  0.48441748  0.12261479    -0.12400
C1636       C  0.61829928  0.50025117  0.15099347     0.18400
C1637       C  0.59580766  0.01379260  0.15993936    -0.09500
C1638       C  0.57400740  0.01235494  0.13960065    -0.02400
H1639       H  0.63495045  0.47300484  0.11629337     0.05000
C1640       C  0.64165703  0.50067312  0.17190431     0.20400
H1641       H  0.55715514  0.02340626  0.14631048     0.10100
C1642       C  0.66174827  0.01782191  0.16467555    -0.15800
C1643       C  0.68465848  0.01743119  0.18299827     0.03100
C1644       C  0.68819989  0.49901792  0.20892071    -0.11100
C1645       C  0.66730467  0.48243126  0.21624097    -0.01100
C1646       C  0.64455449  0.48304110  0.19798612    -0.06300
H1647       H  0.65958298  0.03161673  0.14464455     0.06200
H1648       H  0.66774640  0.46900631  0.23653884     0.09500
Br1649     Br  0.59406565  0.03439688  0.19968807    -0.06000
Br1650     Br  0.59715534  0.45745248  0.06727891    -0.03000
Br1651     Br  0.70988570  0.04315513  0.17139695    -0.00100
Br1652     Br  0.61776406  0.45912814  0.20948819    -0.04500
C1653       C  0.89849373  0.49821209  0.11254338    -0.11900
C1654       C  0.87654357  0.01376841  0.10672521     0.03600
C1655       C  0.85595775  0.01331632  0.12871426    -0.12400
C1656       C  0.85652208  0.49771904  0.15696878     0.18400
C1657       C  0.87849736  0.48250467  0.16342201    -0.09500
C1658       C  0.89935914  0.48297205  0.14141387    -0.02400
H1659       H  0.83915701  0.02506899  0.12350658     0.05000
C1660       C  0.83317778  0.49645215  0.17781020     0.20400
H1661       H  0.91597351  0.47091266  0.14643580     0.10100
C1662       C  0.81837783  0.47351634  0.17725295    -0.15800
C1663       C  0.79461873  0.47257512  0.19321728     0.03100
C1664       C  0.78549161  0.49473656  0.21048814    -0.11100
C1665       C  0.80058951  0.01734219  0.21194684    -0.01100
C1666       C  0.82407561  0.01848207  0.19540849    -0.06300
H1667       H  0.82499177  0.45653778  0.16347245     0.06200
H1668       H  0.79367123  0.03449551  0.22513672     0.09500
Br1669     Br  0.88065653  0.46103266  0.20206578    -0.06000
Br1670     Br  0.87361927  0.03706021  0.06987067    -0.03000
Br1671     Br  0.77535565  0.44067968  0.19074715    -0.00100
Br1672     Br  0.84267581  0.05081057  0.19713367    -0.04500
C1673       C  0.99132888  0.40952106  0.10991590    -0.11900
C1674       C  0.51245356  0.39232861  0.10888980     0.03600
C1675       C  0.51253162  0.36961688  0.12802307    -0.12400
C1676       C  0.99191455  0.36383989  0.14887210     0.18400
C1677       C  0.97123741  0.38155934  0.15093044    -0.09500
C1678       C  0.97095826  0.40411804  0.13133080    -0.02400
H1679       H  0.52899154  0.35669209  0.12719137     0.05000
C1680       C  0.99381543  0.34079718  0.17084148     0.20400
H1681       H  0.95457449  0.41713467  0.13227204     0.10100
C1682       C  0.50207679  0.34476049  0.20339750    -0.15800
C1683       C  0.50603349  0.32365565  0.22457831     0.03100
C1684       C  0.00260146  0.29767656  0.21301718    -0.11100
C1685       C  0.99306069  0.29376780  0.18079764    -0.01100
C1686       C  0.98855276  0.31510566  0.15978207    -0.06300
H1687       H  0.50542028  0.36449898  0.21242721     0.06200
H1688       H  0.98949517  0.27409214  0.17175913     0.09500
Br1689     Br  0.94295292  0.37553402  0.17996782    -0.06000
Br1690     Br  0.54232974  0.40007216  0.08331834    -0.03000
Br1691     Br  0.51399778  0.33201716  0.26970375    -0.00100
Br1692     Br  0.97469968  0.30845692  0.11658269    -0.04500
C1693       C  0.98142493  0.08959373  0.11140419    -0.11900
C1694       C  0.99635307  0.09002855  0.14059824     0.03600
C1695       C  0.99748626  0.11279765  0.16018274    -0.12400
C1696       C  0.98335307  0.13518340  0.15190553     0.18400
C1697       C  0.46701063  0.13422654  0.12423868    -0.09500
C1698       C  0.46643962  0.11178747  0.10400088    -0.02400
H1699       H  0.00991320  0.11324329  0.18167375     0.05000
C1700       C  0.98705086  0.15968331  0.17140825     0.20400
H1701       H  0.45427895  0.11173761  0.08224879     0.10100
C1702       C  0.50160505  0.18005182  0.15788482    -0.15800
C1703       C  0.50755476  0.20244766  0.17664300     0.03100
C1704       C  0.99857198  0.20497432  0.20930994    -0.11100
C1705       C  0.98334689  0.18498548  0.22253803    -0.01100
C1706       C  0.97771042  0.16236920  0.20391354    -0.06300
H1707       H  0.50905078  0.17812933  0.13299116     0.06200
H1708       H  0.97658754  0.18657676  0.24779346     0.09500
Br1709     Br  0.44472082  0.16291041  0.11389781    -0.06000
Br1710     Br  0.01691237  0.06097578  0.15416269    -0.03000
Br1711     Br  0.52890593  0.22865162  0.15724329    -0.00100
Br1712     Br  0.95763505  0.13531664  0.22376855    -0.04500
C1713       C  0.57452667  0.41581587  0.99839973    -0.11900
C1714       C  0.60037972  0.42202981  0.99110852     0.03600
C1715       C  0.61902605  0.40246831  0.99246794    -0.12400
C1716       C  0.61252674  0.37660383  0.99990926     0.18400
C1717       C  0.58691051  0.37026222  0.00659719    -0.09500
C1718       C  0.56826420  0.38970942  0.00565345    -0.02400
H1719       H  0.63877616  0.40737147  0.98720950     0.05000
C1720       C  0.63271858  0.35648002  0.99993813     0.20400
H1721       H  0.54867033  0.38419959  0.01078850     0.10100
C1722       C  0.63882664  0.34378224  0.02955490    -0.15800
C1723       C  0.65780194  0.32452465  0.03025041     0.03100
C1724       C  0.67107203  0.31803069  0.00106153    -0.11100
C1725       C  0.66525760  0.33095300  0.97159147    -0.01100
C1726       C  0.64617469  0.35006534  0.97080630    -0.06300
H1727       H  0.62875693  0.34885362  0.05212682     0.06200
H1728       H  0.67541864  0.32589023  0.94909383     0.09500
Br1729     Br  0.57606656  0.33528948  0.01632395    -0.06000
Br1730     Br  0.61210022  0.45604905  0.97767070    -0.03000
Br1731     Br  0.66503550  0.30767915  0.07144894    -0.00100
Br1732     Br  0.63859899  0.36613537  0.92915673    -0.04500
C1733       C  0.80451051  0.31365484  0.00230700    -0.11900
C1734       C  0.81233517  0.32616177  0.97320247     0.03600
C1735       C  0.83312143  0.34335975  0.97412652    -0.12400
C1736       C  0.84599827  0.34850565  0.00396692     0.18400
C1737       C  0.83793730  0.33614750  0.03315789    -0.09500
C1738       C  0.81747498  0.31860073  0.03206560    -0.02400
H1739       H  0.83889304  0.35320863  0.95172264     0.05000
C1740       C  0.86605082  0.36874898  0.00486618     0.20400
H1741       H  0.81149999  0.30891611  0.05449836     0.10100
C1742       C  0.86032833  0.39284904  0.01979236    -0.15800
C1743       C  0.87835673  0.41296315  0.02093005     0.03100
C1744       C  0.90279978  0.40912109  0.00652396    -0.11100
C1745       C  0.90854057  0.38470007  0.99198835    -0.01100
C1746       C  0.89037239  0.36465679  0.99088195    -0.06300
H1747       H  0.84162334  0.39599108  0.03069990     0.06200
H1748       H  0.92708279  0.38130190  0.98077244     0.09500
Br1749     Br  0.85411166  0.34287121  0.07504124    -0.06000
Br1750     Br  0.79486732  0.32036674  0.93202090    -0.03000
Br1751     Br  0.86826787  0.44440971  0.04394488    -0.00100
Br1752     Br  0.89974372  0.33214169  0.97014541    -0.04500
C1753       C  0.79969716  0.17870374  0.00602439    -0.11900
C1754       C  0.81128964  0.17082798  0.03571737     0.03600
C1755       C  0.83094624  0.15228170  0.03488296    -0.12400
C1756       C  0.83939570  0.14174380  0.00462083     0.18400
C1757       C  0.82745409  0.14952331  0.97494233    -0.09500
C1758       C  0.80764489  0.16778585  0.97591333    -0.02400
H1759       H  0.83964757  0.14603602  0.05785692     0.05000
C1760       C  0.85986054  0.12185756  0.00442743     0.20400
H1761       H  0.79878172  0.17402474  0.95303314     0.10100
C1762       C  0.85457994  0.09711425  0.99086108    -0.15800
C1763       C  0.87361345  0.07808685  0.98828016     0.03100
C1764       C  0.89820012  0.08316155  0.00143657    -0.11100
C1765       C  0.90334957  0.10788425  0.01546732    -0.01100
C1766       C  0.88455610  0.12726983  0.01671887    -0.06300
H1767       H  0.83563637  0.09285071  0.98126961     0.06200
H1768       H  0.92213496  0.11225500  0.02549597     0.09500
Br1769     Br  0.83808432  0.13678717  0.93227406    -0.06000
Br1770     Br  0.80077918  0.18496673  0.07765234    -0.03000
Br1771     Br  0.86509213  0.04681407  0.96387580    -0.00100
Br1772     Br  0.89412779  0.16096167  0.03410864    -0.04500
C1773       C  0.56809898  0.08882561  0.00735446    -0.11900
C1774       C  0.58934616  0.08725724  0.02890518     0.03600
C1775       C  0.60779106  0.10702613  0.02881577    -0.12400
C1776       C  0.60534120  0.12843850  0.00764230     0.18400
C1777       C  0.58382733  0.13043302  0.98685882    -0.09500
C1778       C  0.56534315  0.11072003  0.98690627    -0.02400
H1779       H  0.62426675  0.10557340  0.04503923     0.05000
C1780       C  0.62622021  0.14762693  0.00602121     0.20400
H1781       H  0.54903689  0.11222938  0.97040881     0.10100
C1782       C  0.64323659  0.14629239  0.97930480    -0.14600
C1783       C  0.66352389  0.16392388  0.97692554     0.03100
C1784       C  0.66685904  0.18324903  0.00160020    -0.11100
C1785       C  0.64982654  0.18453843  0.02832417    -0.01100
C1786       C  0.62961689  0.16683037  0.03075604    -0.06300
H1787       H  0.64070672  0.13143226  0.96029518     0.06200
H1788       H  0.65235304  0.19936789  0.04736916     0.09500
Br1789     Br  0.57898654  0.15973965  0.95812657    -0.06000
Br1790     Br  0.59360506  0.05933561  0.06000386    -0.03000
Br1791     Br  0.68588706  0.16099452  0.93950674    -0.00100
Br1792     Br  0.60699535  0.16987460  0.06787944    -0.04500
C1793       C  0.89848650  0.99807548  0.89378608    -0.11900
C1794       C  0.89571119  0.01907916  0.87165431     0.03600
C1795       C  0.87412478  0.02038584  0.85108697    -0.12400
C1796       C  0.85542793  0.50070035  0.85180703     0.18400
C1797       C  0.85887337  0.47909162  0.87278599    -0.09500
C1798       C  0.88004363  0.47815232  0.89396990    -0.02400
H1799       H  0.87171046  0.03696447  0.83483428     0.05000
C1800       C  0.83204570  0.50307824  0.83131921     0.20400
H1801       H  0.88209331  0.46183941  0.91074224     0.10100
C1802       C  0.82895258  0.48658147  0.80382193    -0.15800
C1803       C  0.80589916  0.48590119  0.78613147     0.03100
C1804       C  0.78510480  0.50190510  0.79608648    -0.11100
C1805       C  0.78874144  0.01921333  0.82307855    -0.01100
C1806       C  0.81202614  0.02008937  0.84038479    -0.06300
H1807       H  0.84437722  0.47349790  0.79672641     0.06200
H1808       H  0.77337690  0.03213706  0.83080063     0.09500
Br1809     Br  0.83482704  0.45072062  0.87385912    -0.06000
Br1810     Br  0.91997131  0.04722547  0.87012976    -0.03000
Br1811     Br  0.80405393  0.46090969  0.75066042    -0.00100
Br1812     Br  0.81553892  0.04417054  0.87687199    -0.04500
C1813       C  0.57169046  0.00106093  0.89201521    -0.11900
C1814       C  0.57489364  0.48157889  0.86741913     0.03600
C1815       C  0.59640623  0.48216042  0.84665434    -0.12400
C1816       C  0.61480047  0.50206566  0.84985746     0.18400
C1817       C  0.61061332  0.02242602  0.87299265    -0.09500
C1818       C  0.58948075  0.02154892  0.89411326    -0.02400
H1819       H  0.59933588  0.46645471  0.82888388     0.05000
C1820       C  0.63923054  0.50014940  0.83119188     0.20400
H1821       H  0.58699704  0.03691316  0.91248072     0.10100
C1822       C  0.63941626  0.00207238  0.79664814    -0.15800
C1823       C  0.66250069  0.00101506  0.77884863     0.03100
C1824       C  0.68639821  0.49867491  0.79572866    -0.11100
C1825       C  0.68552720  0.49509327  0.83032349    -0.01100
C1826       C  0.66246480  0.49566222  0.84779058    -0.06300
H1827       H  0.62150166  0.00450934  0.78345337     0.06200
H1828       H  0.70247419  0.49106121  0.84453128     0.09500
Br1829     Br  0.63339662  0.05175297  0.87697539    -0.06000
Br1830     Br  0.55176846  0.45261696  0.86300872    -0.03000
Br1831     Br  0.65952421  0.00244203  0.73145582    -0.00100
Br1832     Br  0.66361544  0.48890590  0.89447106    -0.04500
C1833       C  0.00073376  0.19993042  0.79380781    -0.11900
C1834       C  0.51731766  0.19139604  0.81912027     0.03600
C1835       C  0.51145187  0.16893461  0.83716410    -0.12400
C1836       C  0.98935993  0.15433266  0.83020205     0.18400
C1837       C  0.97248491  0.16298929  0.80536482    -0.09500
C1838       C  0.97809473  0.18582920  0.78764682    -0.02400
H1839       H  0.52438407  0.16260615  0.85651585     0.05000
C1840       C  0.98450630  0.13031673  0.84957568     0.20400
H1841       H  0.96526376  0.19197111  0.76816524     0.10100
C1842       C  0.96900017  0.13188340  0.87771626    -0.15800
C1843       C  0.96692885  0.11069185  0.89931295     0.03100
C1844       C  0.98088219  0.08734572  0.89315037    -0.11100
C1845       C  0.99519863  0.08534252  0.86380815    -0.01100
C1846       C  0.99706887  0.10658497  0.84214372    -0.06300
H1847       H  0.95893236  0.14993614  0.88333332     0.06200
H1848       H  0.00578275  0.06758481  0.85831317     0.09500
Br1849     Br  0.94244693  0.14337577  0.79378319    -0.06000
Br1850     Br  0.54811355  0.20992803  0.83034291    -0.03000
Br1851     Br  0.94416496  0.11483025  0.93625969    -0.00100
Br1852     Br  0.01739151  0.10269475  0.80296580    -0.04500
C1853       C  0.99392011  0.40846590  0.89296932    -0.11900
C1854       C  0.51467404  0.39076477  0.89518051     0.03600
C1855       C  0.51592026  0.36875865  0.87430071    -0.12400
C1856       C  0.99691806  0.36393698  0.85051916     0.18400
C1857       C  0.97655662  0.38196818  0.84746499    -0.09500
C1858       C  0.97521273  0.40403187  0.86852287    -0.02400
H1859       H  0.53193136  0.35536629  0.87650312     0.05000
C1860       C  0.99889753  0.33999105  0.82931338     0.20400
H1861       H  0.95909284  0.41729041  0.86648106     0.10100
C1862       C  0.99387930  0.31529956  0.84293171    -0.15800
C1863       C  0.99709502  0.29216812  0.82422810     0.03100
C1864       C  0.00518780  0.29346417  0.79093228    -0.11100
C1865       C  0.51023833  0.31830471  0.77754098    -0.01100
C1866       C  0.50747534  0.34126922  0.79640176    -0.06300
H1867       H  0.98802817  0.31398873  0.86855518     0.06200
H1868       H  0.51681843  0.31989272  0.75225013     0.09500
Br1869     Br  0.94967910  0.37658338  0.81578248    -0.06000
Br1870     Br  0.54268286  0.39637054  0.92501910    -0.03000
Br1871     Br  0.99271413  0.25958869  0.84669937    -0.00100
Br1872     Br  0.51731393  0.37378519  0.77678521    -0.04500
C1873       C  0.96083726  0.24610997  0.71207288    -0.11900
C1874       C  0.94982421  0.26981610  0.70154293     0.03600
C1875       C  0.92672823  0.26961185  0.68368429    -0.12400
C1876       C  0.91415985  0.24594648  0.67626950     0.18400
C1877       C  0.92493952  0.22231318  0.68770117    -0.09500
C1878       C  0.94812049  0.22255445  0.70521464    -0.02400
H1879       H  0.91892708  0.28790817  0.67476229     0.05000
C1880       C  0.89128296  0.24589982  0.65413466     0.20400
H1881       H  0.95658973  0.20418420  0.71272100     0.10100
C1882       C  0.89306339  0.23337006  0.62325343    -0.15800
C1883       C  0.87228140  0.23262723  0.60138984     0.03100
C1884       C  0.84892548  0.24515940  0.60984535    -0.11100
C1885       C  0.84694144  0.25712464  0.64118293    -0.01100
C1886       C  0.86789943  0.25784616  0.66307521    -0.06300
H1887       H  0.91082601  0.22391026  0.61614091     0.06200
H1888       H  0.82917972  0.26634172  0.64849115     0.09500
Br1889     Br  0.90878383  0.18910998  0.67991559    -0.06000
Br1890     Br  0.96622572  0.30276280  0.70994918    -0.03000
Br1891     Br  0.87694191  0.21261292  0.56133430    -0.00100
Br1892     Br  0.86352235  0.27499040  0.70504668    -0.04500
C1893       C  0.67125305  0.24547991  0.60595192    -0.11900
C1894       C  0.67120335  0.25813791  0.63724666     0.03600
C1895       C  0.64892264  0.25806568  0.65684951    -0.12400
C1896       C  0.62645609  0.24546174  0.64605610     0.18400
C1897       C  0.62658946  0.23255370  0.61519732    -0.09500
C1898       C  0.64864953  0.23273906  0.59553584    -0.02400
H1899       H  0.64908869  0.26798258  0.68063570     0.05000
C1900       C  0.60327477  0.24516388  0.66755303     0.20400
H1901       H  0.64809993  0.22266618  0.57186572     0.10100
C1902       C  0.58340399  0.26313731  0.66232326    -0.15800
C1903       C  0.56110889  0.26287200  0.68176902     0.03100
C1904       C  0.55777518  0.24369382  0.70679300    -0.11100
C1905       C  0.57827785  0.22605456  0.71208256    -0.01100
C1906       C  0.60065134  0.22677556  0.69293345    -0.06300
H1907       H  0.58533395  0.27763498  0.64308629     0.06200
H1908       H  0.57775907  0.21189392  0.73162915     0.09500
Br1909     Br  0.59718537  0.21385287  0.59915414    -0.06000
Br1910     Br  0.70029188  0.27704812  0.65392245    -0.03000
Br1911     Br  0.53637529  0.28993359  0.67296191    -0.00100
Br1912     Br  0.62746602  0.20223636  0.70239728    -0.04500
C1913       C  0.75834671  0.15614665  0.60601508    -0.11900
C1914       C  0.76656399  0.13033467  0.59761049     0.03600
C1915       C  0.76239447  0.10950467  0.61930767    -0.12400
C1916       C  0.75035529  0.11338814  0.64978696     0.18400
C1917       C  0.74271664  0.13890618  0.65884561    -0.09500
C1918       C  0.74669844  0.15994475  0.63714638    -0.02400
H1919       H  0.76875705  0.09001210  0.61239156     0.05000
C1920       C  0.74671076  0.09054128  0.67194253     0.20400
H1921       H  0.74010281  0.17925124  0.64443312     0.10100
C1922       C  0.76512818  0.08513080  0.69627910    -0.15800
C1923       C  0.76263834  0.06340814  0.71711497     0.03100
C1924       C  0.74163655  0.04623412  0.71335586    -0.11100
C1925       C  0.72327720  0.05170458  0.68889457    -0.01100
C1926       C  0.72559766  0.07359319  0.66842704    -0.06300
H1927       H  0.78133281  0.09814117  0.69941193     0.06200
H1928       H  0.70677249  0.03904594  0.68604907     0.09500
Br1929     Br  0.72631182  0.14565036  0.70041916    -0.06000
Br1930     Br  0.78456825  0.12144908  0.55772940    -0.03000
Br1931     Br  0.78724252  0.05976590  0.75193032    -0.00100
Br1932     Br  0.69893159  0.08003643  0.63688157    -0.04500
C1933       C  0.75849731  0.33787556  0.61166365    -0.11900
C1934       C  0.77503531  0.34057980  0.63917315     0.03600
C1935       C  0.77357493  0.36299291  0.65964712    -0.12400
C1936       C  0.75558175  0.38294885  0.65358649     0.18400
C1937       C  0.73899436  0.38008996  0.62619450    -0.09500
C1938       C  0.74066941  0.35794300  0.60562899    -0.02400
H1939       H  0.78672898  0.36497533  0.68026391     0.05000
C1940       C  0.75404258  0.40649040  0.67587594     0.20400
H1941       H  0.72777581  0.35635021  0.58466773     0.10100
C1942       C  0.75833698  0.43162015  0.66300217    -0.15800
C1943       C  0.75419164  0.45436030  0.68216257     0.03100
C1944       C  0.74532543  0.45234920  0.71502406    -0.11100
C1945       C  0.74243617  0.42709608  0.72837569    -0.01100
C1946       C  0.74696318  0.40441878  0.70938335    -0.06300
H1947       H  0.76429868  0.43357801  0.63749839     0.06200
H1948       H  0.73638349  0.42494909  0.75381791     0.09500
Br1949     Br  0.71305217  0.40547245  0.61608828    -0.06000
Br1950     Br  0.80106564  0.31535974  0.64871539    -0.03000
Br1951     Br  0.75923058  0.48741803  0.66109326    -0.00100
Br1952     Br  0.74220412  0.37110332  0.73013549    -0.04500
C1953       C  0.84924181  0.16454915  0.49064476    -0.11900
C1954       C  0.87147814  0.16848993  0.47139660     0.03600
C1955       C  0.88997319  0.14873745  0.46928468    -0.12400
C1956       C  0.88672015  0.12515396  0.48611957     0.18400
C1957       C  0.86459729  0.12105800  0.50494995    -0.09500
C1958       C  0.84605991  0.14062641  0.50694669    -0.02400
H1959       H  0.90704458  0.15181315  0.45464052     0.05000
C1960       C  0.90712015  0.10543329  0.48513224     0.20400
H1961       H  0.82925156  0.13728765  0.52180638     0.10100
C1962       C  0.92474262  0.10465015  0.51127693    -0.15800
C1963       C  0.94394517  0.08566621  0.51183763     0.03100
C1964       C  0.94594015  0.06759823  0.48553585    -0.11100
C1965       C  0.92814351  0.06824565  0.45951139    -0.01100
C1966       C  0.90865312  0.08695618  0.45925760    -0.06300
H1967       H  0.92322894  0.11856735  0.53155417     0.06200
H1968       H  0.92933272  0.05399944  0.43956292     0.09500
Br1969     Br  0.85908160  0.08909692  0.52848726    -0.06000
Br1970     Br  0.87741656  0.19959508  0.44627163    -0.03000
Br1971     Br  0.96616439  0.08420800  0.54963232    -0.00100
Br1972     Br  0.88412723  0.08612390  0.42386442    -0.04500
C1973       C  0.67758020  0.16015505  0.49692962    -0.11900
C1974       C  0.65102661  0.16636337  0.49617659     0.03600
C1975       C  0.63299216  0.14631311  0.49429614    -0.12400
C1976       C  0.64041683  0.12000783  0.49358408     0.18400
C1977       C  0.66662810  0.11364977  0.49424375    -0.09500
C1978       C  0.68487273  0.13359353  0.49608007    -0.02400
H1979       H  0.61281996  0.15128680  0.49342102     0.05000
C1980       C  0.62019683  0.09984342  0.49196855     0.20400
H1981       H  0.70491188  0.12813438  0.49668673     0.10100
C1982       C  0.61782431  0.08409429  0.46352242    -0.15800
C1983       C  0.59768561  0.06622026  0.46039632     0.03100
C1984       C  0.57931690  0.06432520  0.48570763    -0.11100
C1985       C  0.58166620  0.08004795  0.51409802    -0.01100
C1986       C  0.60199557  0.09759312  0.51749199    -0.06300
H1987       H  0.63152194  0.08591111  0.44359112     0.06200
H1988       H  0.56785673  0.07830142  0.53391236     0.09500
Br1989     Br  0.67863205  0.07815350  0.49324924    -0.06000
Br1990     Br  0.63694802  0.20126264  0.49746222    -0.03000
Br1991     Br  0.59580482  0.04488018  0.42118414    -0.00100
Br1992     Br  0.60462433  0.11732346  0.55798455    -0.04500
C1993       C  0.67287896  0.33339899  0.49752405    -0.11900
C1994       C  0.65093886  0.32912525  0.47759073     0.03600
C1995       C  0.63197678  0.34834215  0.47560623    -0.12400
C1996       C  0.63433981  0.37201394  0.49294234     0.18400
C1997       C  0.65597265  0.37637468  0.51306544    -0.09500
C1998       C  0.67507102  0.35715797  0.51516610    -0.02400
H1999       H  0.61538740  0.34497332  0.46000156     0.05000
C2000       C  0.61395329  0.39182814  0.48943822     0.20400
H2001       H  0.69169284  0.36081448  0.53060387     0.10100
C2002       C  0.59640672  0.39553480  0.51528780    -0.15800
C2003       C  0.57648233  0.41367337  0.51232162     0.03100
C2004       C  0.57429786  0.42864907  0.48340274    -0.11100
C2005       C  0.59152792  0.42468771  0.45738609    -0.01100
C2006       C  0.61110254  0.40619035  0.46003203    -0.06300
H2007       H  0.59815650  0.38417798  0.53769168     0.06200
H2008       H  0.58979977  0.43616968  0.43507652     0.09500
Br2009     Br  0.66056982  0.40858744  0.53709588    -0.06000
Br2010     Br  0.64630921  0.29850970  0.45031073    -0.03000
Br2011     Br  0.55280511  0.41767129  0.54826048    -0.00100
Br2012     Br  0.63355175  0.40153395  0.42297900    -0.04500
C2013       C  0.84431391  0.33816931  0.49801927    -0.11900
C2014       C  0.84107433  0.36365416  0.51134067     0.03600
C2015       C  0.85994659  0.38260771  0.50625997    -0.12400
C2016       C  0.88218212  0.37652481  0.48848930     0.18400
C2017       C  0.88571638  0.35113090  0.47583413    -0.09500
C2018       C  0.86683796  0.33225040  0.48045554    -0.02400
H2019       H  0.85758755  0.40200194  0.51689147     0.05000
C2020       C  0.90259673  0.39615644  0.48593015     0.20400
H2021       H  0.86976322  0.31287518  0.47003520     0.10100
C2022       C  0.92210634  0.39612647  0.50972183    -0.15800
C2023       C  0.94204602  0.41419036  0.50824120     0.03100
C2024       C  0.94263327  0.43257724  0.48249873    -0.11100
C2025       C  0.92307076  0.43261977  0.45864477    -0.01100
C2026       C  0.90307360  0.41451137  0.46019100    -0.06300
H2027       H  0.92174275  0.38200543  0.52956549     0.06200
H2028       H  0.92338416  0.44680778  0.43887904     0.09500
Br2029     Br  0.91628591  0.34140325  0.45261592    -0.06000
Br2030     Br  0.81256339  0.37331582  0.53883894    -0.03000
Br2031     Br  0.96761551  0.41341946  0.54238336    -0.00100
Br2032     Br  0.87699177  0.41540031  0.42674651    -0.04500
C2033       C  0.67594602  0.24512975  0.38797014    -0.11900
C2034       C  0.66055138  0.22264498  0.38429857     0.03600
C2035       C  0.63912680  0.22307934  0.36323711    -0.12400
C2036       C  0.63290021  0.24566013  0.34523097     0.18400
C2037       C  0.64922651  0.26758571  0.34754587    -0.09500
C2038       C  0.67048256  0.26720808  0.36881596    -0.02400
H2039       H  0.62704844  0.20590620  0.36132475     0.05000
C2040       C  0.60867495  0.24656266  0.32566839     0.20400
H2041       H  0.68236108  0.28449662  0.37111629     0.10100
C2042       C  0.58906176  0.26360732  0.33558831    -0.15800
C2043       C  0.56591268  0.26515891  0.31803527     0.03100
C2044       C  0.56105822  0.24811900  0.29067269    -0.11100
C2045       C  0.58154278  0.23194489  0.28007078    -0.01100
C2046       C  0.60499351  0.23121233  0.29705856    -0.06300
H2047       H  0.59198790  0.27620696  0.35695904     0.06200
H2048       H  0.58017795  0.22044675  0.25767116     0.09500
Br2049     Br  0.64338953  0.29837943  0.32178449    -0.06000
Br2050     Br  0.66870821  0.19077257  0.40687699    -0.03000
Br2051     Br  0.54272898  0.29208434  0.33258581    -0.00100
Br2052     Br  0.63218695  0.21048328  0.27867662    -0.04500
C2053       C  0.84982963  0.25060657  0.39335433    -0.11900
C2054       C  0.85076097  0.23473875  0.36457220     0.03600
C2055       C  0.87286433  0.23459517  0.34485788    -0.12400
C2056       C  0.89437783  0.24949036  0.35384185     0.18400
C2057       C  0.89354065  0.26503198  0.38263360    -0.09500
C2058       C  0.87138063  0.26573318  0.40182807    -0.02400
H2059       H  0.87358061  0.22221839  0.32298910     0.05000
C2060       C  0.91778300  0.24840043  0.33335854     0.20400
H2061       H  0.87121668  0.27778638  0.42400133     0.10100
C2062       C  0.92010367  0.26524711  0.30640193    -0.15800
C2063       C  0.94275435  0.26621616  0.28791212     0.03100
C2064       C  0.96346790  0.24941757  0.29576731    -0.11100
C2065       C  0.96073225  0.23227067  0.32263804    -0.01100
C2066       C  0.93839260  0.23198481  0.34164412    -0.06300
H2067       H  0.90450855  0.27843137  0.30049241     0.06200
H2068       H  0.97620414  0.21917423  0.32925513     0.09500
Br2069     Br  0.92264396  0.28475620  0.39741513    -0.06000
Br2070     Br  0.82378242  0.21089485  0.35286519    -0.03000
Br2071     Br  0.94460352  0.29294988  0.25499897    -0.00100
Br2072     Br  0.93724586  0.20964942  0.37953541    -0.04500
C2073       C  0.76206947  0.34002697  0.39381404    -0.11900
C2074       C  0.75226793  0.33800285  0.36118608     0.03600
C2075       C  0.75129789  0.36027060  0.34101267    -0.12400
C2076       C  0.76003023  0.38467873  0.35255866     0.18400
C2077       C  0.77056161  0.38654975  0.38447839    -0.09500
C2078       C  0.77159719  0.36445819  0.40466282    -0.02400
H2079       H  0.74287779  0.35873757  0.31656205     0.05000
C2080       C  0.75543082  0.40852590  0.33265048     0.20400
H2081       H  0.77952396  0.36660243  0.42932128     0.10100
C2082       C  0.73266661  0.42248852  0.33766007    -0.15800
C2083       C  0.72724603  0.44511243  0.31965802     0.03100
C2084       C  0.74476138  0.45423135  0.29574351    -0.11100
C2085       C  0.76802213  0.44065770  0.29150755    -0.01100
C2086       C  0.77339770  0.41793196  0.30971971    -0.06300
H2087       H  0.71900597  0.41572550  0.35581320     0.06200
H2088       H  0.78168648  0.44724624  0.27327150     0.09500
Br2089     Br  0.78281137  0.41924757  0.40198039    -0.06000
Br2090     Br  0.73798088  0.30620757  0.34339648    -0.03000
Br2091     Br  0.69593780  0.46315403  0.32990480    -0.00100
Br2092     Br  0.80525195  0.40008961  0.30251769    -0.04500
C2093       C  0.76520093  0.16130287  0.38748901    -0.11900
C2094       C  0.78438610  0.14183459  0.38647949     0.03600
C2095       C  0.78220346  0.12064454  0.36434380    -0.12400
C2096       C  0.76104893  0.11836476  0.34297937     0.18400
C2097       C  0.74213840  0.13815364  0.34360492    -0.09500
C2098       C  0.74453159  0.15951376  0.36538782    -0.02400
H2099       H  0.79684859  0.10559936  0.36421438     0.05000
C2100       C  0.75784025  0.09409267  0.32271964     0.20400
H2101       H  0.72946519  0.17411125  0.36627025     0.10100
C2102       C  0.75385478  0.07027273  0.33897379    -0.15800
C2103       C  0.74886304  0.04717701  0.32118522     0.03100
C2104       C  0.74779655  0.04750046  0.28641074    -0.11100
C2105       C  0.75259510  0.07116767  0.26998972    -0.01100
C2106       C  0.75785685  0.09429121  0.28781994    -0.06300
H2107       H  0.75384579  0.06980434  0.36576009     0.06200
H2108       H  0.75206286  0.07167773  0.24320980     0.09500
Br2109     Br  0.71144192  0.13577952  0.31757775    -0.06000
Br2110     Br  0.81411776  0.14355902  0.41438997    -0.03000
Br2111     Br  0.74167726  0.01619981  0.34573684    -0.00100
Br2112     Br  0.76527685  0.12555357  0.26361866    -0.04500
O2113       O  0.76349940  0.70623853  0.40376744    -0.80000
O2114       O  0.75952456  0.70254223  0.59368751    -0.81600
O2115       O  0.80558069  0.67610748  0.49540009    -0.78600
O2116       O  0.72149913  0.67313490  0.49737543    -0.77000
O2117       O  0.69069747  0.70457088  0.49853930    -0.78800
O2118       O  0.83545284  0.70869390  0.49571370    -0.79700
O2119       O  0.76169676  0.67278609  0.55127312    -0.81100
O2120       O  0.76514290  0.67460041  0.44362066    -0.81300
Eu2121     Eu  0.76287061  0.69591701  0.49834360     2.39200
O2122       O  0.73633907  0.72157163  0.53256479    -0.88900
O2123       O  0.78789462  0.72373068  0.46588426    -0.92500
C2124       C  0.76488826  0.68212374  0.41320986     1.02200
C2125       C  0.76021664  0.67865093  0.58229035     1.02100
C2126       C  0.82884963  0.68444671  0.49393883     1.02000
C2127       C  0.69785765  0.68054637  0.49780452     0.99900
H2128       H  0.79860936  0.71111724  0.54724570     0.29600
O2129       O  0.78760804  0.72225053  0.53425214    -1.01200
H2130       H  0.72640521  0.71075379  0.45039816     0.29600
O2131       O  0.73670437  0.72194350  0.46440303    -1.03800
O2132       O  0.76093824  0.79183890  0.59711869    -0.81000
O2133       O  0.76222536  0.79411758  0.40691776    -0.80500
O2134       O  0.83374248  0.74886011  0.55500584    -0.79000
O2135       O  0.68760914  0.74619343  0.55151267    -0.82300
O2136       O  0.68938188  0.74569192  0.44382935    -0.80200
O2137       O  0.83415604  0.75100619  0.44778419    -0.78800
O2138       O  0.80089739  0.82458893  0.50120699    -0.80300
O2139       O  0.71704834  0.82227540  0.50106800    -0.82300
O2140       O  0.83245336  0.79362173  0.50143988    -0.79000
O2141       O  0.68745740  0.78946394  0.49891331    -0.81700
O2142       O  0.80393413  0.74669170  0.59625008    -0.77400
O2143       O  0.80489902  0.74953543  0.40561729    -0.77500
O2144       O  0.71987403  0.74860227  0.40334940    -0.77100
O2145       O  0.71673789  0.74680691  0.59388820    -0.80600
O2146       O  0.75962409  0.82284675  0.55646171    -0.80000
O2147       O  0.76043198  0.82441418  0.44877035    -0.78300
Eu2148     Eu  0.76077217  0.74765784  0.56938354     2.39800
Eu2149     Eu  0.76198174  0.74972386  0.43151105     2.39600
Eu2150     Eu  0.81243965  0.75025235  0.50122410     2.38400
Eu2151     Eu  0.71028325  0.74763870  0.49865073     2.39900
Eu2152     Eu  0.75975917  0.80162181  0.50187510     2.39800
O2153       O  0.73505089  0.77544211  0.46575700    -0.92800
O2154       O  0.78590156  0.77547647  0.53591977    -0.91700
C2155       C  0.76014011  0.81594586  0.58709271     1.02400
C2156       C  0.76148028  0.81800625  0.41784485     1.01100
C2157       C  0.82738599  0.74700396  0.58565939     1.00500
C2158       C  0.69344553  0.74627486  0.58254399     1.02500
C2159       C  0.69644364  0.74654428  0.41324395     1.01400
C2160       C  0.82809574  0.75022875  0.41686571     1.00300
C2161       C  0.82460269  0.81757307  0.50090450     1.00400
C2162       C  0.69377611  0.81382437  0.49942201     1.03000
H2163       H  0.79720417  0.78762370  0.45432616     0.30300
O2164       O  0.78650400  0.77633276  0.46741769    -1.04900
H2165       H  0.72347024  0.78454405  0.54831796     0.32400
O2166       O  0.73472937  0.77395871  0.53478858    -1.07500
N2167       N  0.54972134  0.49759934  0.48046785    -0.36500
N2168       N  0.00932229  0.95868077  0.47955117    -0.57100
N2169       N  0.97160859  0.49967586  0.48135899    -0.36500
N2170       N  0.01199125  0.53881448  0.48459737    -0.57100
C2171       C  0.56325857  0.97569869  0.48708421     0.27100
C2172       C  0.56474779  0.51821444  0.48853114     0.27100
C2173       C  0.95698474  0.97868413  0.48846608     0.27100
C2174       C  0.95834148  0.52113695  0.49079448     0.27100
C2175       C  0.52957247  0.94299212  0.47356022     0.35700
C2176       C  0.98825351  0.94424711  0.47322378     0.35700
C2177       C  0.53300060  0.55362770  0.47958990     0.35700
C2178       C  0.99160894  0.55460953  0.47985671     0.35700
C2179       C  0.58728088  0.98248374  0.49908390    -0.21800
C2180       C  0.58822847  0.50933829  0.49996648    -0.21800
C2181       C  0.93414099  0.98690469  0.50259755    -0.21800
C2182       C  0.93497672  0.51377322  0.50402854    -0.21800
C2183       C  0.52139944  0.91843815  0.46326979    -0.22900
C2184       C  0.99511249  0.91927466  0.46287649    -0.22900
C2185       C  0.52597447  0.57905054  0.47200671    -0.22900
C2186       C  0.99967230  0.57965361  0.47203275    -0.22900
C2187       C  0.55509394  0.94978877  0.48076682    -0.18200
C2188       C  0.55837364  0.54479576  0.48396089    -0.18200
C2189       C  0.96597390  0.54718226  0.48532740    -0.18200
C2190       C  0.96316591  0.95246132  0.48071469    -0.18200
H2191       H  0.60266289  0.96944409  0.50615954     0.14700
H2192       H  0.60445411  0.52100099  0.50784875     0.14700
H2193       H  0.91838799  0.97482008  0.51071259     0.14700
H2194       H  0.91998772  0.52647554  0.51336141     0.14700
H2195       H  0.53313941  0.90153117  0.45753264     0.13000
H2196       H  0.98250026  0.90310845  0.45690771     0.13000
H2197       H  0.53848255  0.59546807  0.46727667     0.13000
H2198       H  0.98785784  0.59667829  0.46748124     0.13000
H2199       H  0.53246824  0.49844870  0.46768624     0.26200
H2200       H  0.98815373  0.49961105  0.46709689     0.26200
O2201       O  0.98825496  0.95392111  0.90708991    -0.80000
O2202       O  0.98716053  0.95498744  0.09714261    -0.81600
O2203       O  0.53047305  0.92716489  0.00003911    -0.78600
O2204       O  0.94607921  0.92327014  0.00421574    -0.77000
O2205       O  0.91428842  0.95393244  0.00469382    -0.78800
O2206       O  0.56000101  0.95987328  0.99987069    -0.79700
O2207       O  0.98997908  0.92444058  0.05536566    -0.81100
O2208       O  0.99061964  0.92348342  0.94829165    -0.81300
Eu2209     Eu  0.98742294  0.94621513  0.00194363     2.39200
O2210       O  0.96112426  0.97165023  0.03676366    -0.88900
O2211       O  0.51205792  0.97343300  0.96830152    -0.92500
C2212       C  0.99068595  0.93009528  0.91754864     1.02200
C2213       C  0.98927324  0.93117807  0.08613199     1.02100
C2214       C  0.55374968  0.93558389  0.99924767     1.02000
C2215       C  0.92227409  0.93011178  0.00533631     0.99900
H2216       H  0.52354565  0.96303586  0.04919080     0.29600
O2217       O  0.51222178  0.97377014  0.03604808    -1.01200
H2218       H  0.94984659  0.95944759  0.95446600     0.29600
O2219       O  0.96025824  0.97094125  0.96786474    -1.03800
O2220       O  0.98390661  0.54370237  0.09733137    -0.81000
O2221       O  0.98336841  0.54191745  0.90731510    -0.80500
O2222       O  0.55836270  0.99968125  0.05583577    -0.79000
O2223       O  0.91334341  0.99665354  0.05725690    -0.82300
O2224       O  0.91263551  0.99640368  0.94903521    -0.80200
O2225       O  0.55785367  0.00161198  0.94755086    -0.78800
O2226       O  0.52507782  0.57476079  0.00423958    -0.80300
O2227       O  0.94191725  0.57162107  0.00139886    -0.82300
O2228       O  0.55696935  0.54412225  0.00475283    -0.79000
O2229       O  0.91214294  0.53901274  0.00213481    -0.81700
O2230       O  0.52908520  0.99922880  0.09789821    -0.77400
O2231       O  0.52760411  0.49847993  0.90658203    -0.77500
O2232       O  0.94263112  0.49810162  0.90777420    -0.77100
O2233       O  0.94323362  0.99740287  0.09872979    -0.80600
O2234       O  0.98211990  0.57416310  0.05617054    -0.80000
O2235       O  0.98243187  0.57283763  0.94859292    -0.78300
Eu2236     Eu  0.98591537  0.99913492  0.07150229     2.39800
Eu2237     Eu  0.98534710  0.99817788  0.93376878     2.39600
Eu2238     Eu  0.53683802  0.00106181  0.00203783     2.38400
Eu2239     Eu  0.93441011  0.99689501  0.00291892     2.39900
Eu2240     Eu  0.98412024  0.55140063  0.00263616     2.39800
O2241       O  0.95920994  0.52377043  0.96890563    -0.92800
O2242       O  0.51079286  0.52648923  0.03714339    -0.91700
C2243       C  0.98252721  0.56762812  0.08692703     1.02400
C2244       C  0.98211217  0.56592461  0.91782943     1.01100
C2245       C  0.55234056  0.99881858  0.08671414     1.00500
C2246       C  0.91980750  0.99719525  0.08809473     1.02500
C2247       C  0.91932304  0.49744802  0.91836292     1.01400
C2248       C  0.55099142  0.50010986  0.91687708     1.00300
C2249       C  0.54882429  0.56791445  0.00545035     1.00400
C2250       C  0.91866732  0.56329487  0.00133880     1.03000
H2251       H  0.52086661  0.53762840  0.95416712     0.30300
O2252       O  0.51049682  0.52626060  0.96764631    -1.04900
H2253       H  0.94805198  0.53517323  0.05033164     0.32400
O2254       O  0.95924306  0.52446432  0.03691440    -1.07500
N2255       N  0.77457626  0.74726357  0.00443113    -0.36500
N2256       N  0.73435437  0.70812942  0.00195419    -0.57100
N2257       N  0.69667411  0.74967963  0.00145537    -0.36500
N2258       N  0.73692478  0.78875427  0.00073936    -0.57100
C2259       C  0.78847352  0.72532382  0.99913022     0.27100
C2260       C  0.78989929  0.76780031  0.99762653     0.27100
C2261       C  0.68183106  0.72882392  0.99380266     0.27100
C2262       C  0.68298097  0.77137854  0.99440108     0.27100
C2263       C  0.75435514  0.69251932  0.00938522     0.35700
C2264       C  0.71309433  0.69373333  0.00683699     0.35700
C2265       C  0.75804334  0.80360704  0.00507779     0.35700
C2266       C  0.71666778  0.80487798  0.00478889     0.35700
C2267       C  0.81301278  0.73199731  0.98920406    -0.21800
C2268       C  0.81389804  0.75882394  0.98822670    -0.21800
C2269       C  0.65841080  0.73736530  0.98176253    -0.21800
C2270       C  0.65908724  0.76426506  0.98229173    -0.21800
C2271       C  0.74582901  0.66795634  0.01857065    -0.22900
C2272       C  0.71959195  0.66876678  0.01711879    -0.22900
C2273       C  0.75121542  0.82942019  0.01116399    -0.22900
C2274       C  0.72493845  0.83022163  0.01105977    -0.22900
C2275       C  0.78018870  0.69956946  0.00539376    -0.18200
C2276       C  0.78338794  0.79442774  0.00175380    -0.18200
C2277       C  0.69088148  0.79737562  0.00059836    -0.18200
C2278       C  0.68802281  0.70242481  0.00015638    -0.18200
H2279       H  0.82882232  0.71895693  0.98374576     0.14700
H2280       H  0.83046546  0.77039822  0.98176609     0.14700
H2281       H  0.64232288  0.72544644  0.97401667     0.14700
H2282       H  0.64363415  0.77710865  0.97491765     0.14700
H2283       H  0.75730958  0.65116047  0.02529804     0.13000
H2284       H  0.70679731  0.65272950  0.02256499     0.13000
H2285       H  0.76383998  0.84596329  0.01497414     0.13000
H2286       H  0.71327291  0.84753502  0.01468824     0.13000
H2287       H  0.75686293  0.74817842  0.01596482     0.26200
H2288       H  0.71366646  0.74923636  0.01481386     0.26200
C2289       C  0.53526037  0.74839706  0.27171029     0.86600
C2290       C  0.53017631  0.72525964  0.24767571    -0.53700
C2291       C  0.00743255  0.72667147  0.23114069     0.09500
C2292       C  0.99143600  0.75108101  0.23992684     0.20400
C2293       C  0.53215271  0.77291258  0.25037103    -0.54400
C2294       C  0.00928231  0.77469118  0.23396879     0.09600
C2295       C  0.01146246  0.74808182  0.29416723    -0.53900
C2296       C  0.98847906  0.74999151  0.27787868     0.10200
H2297       H  0.54233733  0.70818911  0.24501008     0.14700
H2298       H  0.97304419  0.75178592  0.22619342     0.00400
H2299       H  0.54699262  0.78768558  0.24841226     0.15000
H2300       H  0.01273257  0.74630875  0.32084745     0.14800
C2301       C  0.71327661  0.99798467  0.22931137     0.86600
C2302       C  0.71585476  0.97576365  0.25494792    -0.53700
C2303       C  0.73800491  0.97610513  0.27295695     0.09500
C2304       C  0.75605110  0.99872997  0.26356450     0.20400
C2305       C  0.71764623  0.52332382  0.24935842    -0.54400
C2306       C  0.73992163  0.52394588  0.26703070     0.09600
C2307       C  0.73764338  0.99462377  0.20824534    -0.53900
C2308       C  0.75992844  0.99527081  0.22609173     0.10200
H2309       H  0.70283961  0.95947470  0.25726734     0.14700
H2310       H  0.77423445  0.99920294  0.27786687     0.00400
H2311       H  0.70429812  0.53965327  0.24921333     0.15000
H2312       H  0.73736557  0.99245913  0.18150523     0.14800
C2313       C  0.53347605  0.74337364  0.72860991     0.86600
C2314       C  0.53192921  0.76775564  0.75100884    -0.53700
C2315       C  0.01032972  0.76964758  0.76996643     0.09500
C2316       C  0.99181994  0.74627562  0.76482739     0.20400
C2317       C  0.52986776  0.72021429  0.75252882    -0.54400
C2318       C  0.00819719  0.72164536  0.77142855     0.09600
C2319       C  0.00833552  0.74326566  0.70861110    -0.53900
C2320       C  0.98669487  0.74534231  0.72730174     0.10200
H2321       H  0.54681662  0.78258398  0.75147430     0.14700
H2322       H  0.97400080  0.74748145  0.77968151     0.00400
H2323       H  0.54214042  0.70316313  0.75363792     0.15000
H2324       H  0.00765421  0.74166404  0.68182462     0.14800
C2325       C  0.71219959  0.99940262  0.77704582     0.86600
C2326       C  0.71480281  0.52344337  0.75480416    -0.53700
C2327       C  0.73667262  0.52418740  0.73646767     0.09500
C2328       C  0.75453738  0.00042758  0.74221494     0.20400
C2329       C  0.71580211  0.97565590  0.75400690    -0.54400
C2330       C  0.73783893  0.97572435  0.73574633     0.09600
C2331       C  0.73714766  0.00010893  0.79795153    -0.53900
C2332       C  0.75929989  0.00044885  0.77990639     0.10200
H2333       H  0.70053396  0.53891611  0.75388288     0.14700
H2334       H  0.77235977  0.00134354  0.72749258     0.00400
H2335       H  0.70212606  0.95966735  0.75286696     0.15000
H2336       H  0.73794942  0.00087362  0.82464414     0.14800
C2337       C  0.57414768  0.99736511  0.11033715    -0.11900
C2338       C  0.59626687  0.98250170  0.10272559     0.03600
C2339       C  0.61812826  0.98440326  0.12259843    -0.12400
C2340       C  0.61830451  0.00024228  0.15097193     0.18400
C2341       C  0.59579901  0.51379401  0.15996585    -0.09500
C2342       C  0.57400067  0.51236173  0.13962157    -0.02400
H2343       H  0.63495359  0.97298960  0.11627790     0.05000
C2344       C  0.64166086  0.00066453  0.17188240     0.20400
H2345       H  0.55714627  0.52340759  0.14633616     0.10100
C2346       C  0.66175394  0.51781428  0.16467942    -0.15800
C2347       C  0.68466416  0.51742336  0.18300275     0.03100
C2348       C  0.68819861  0.99901877  0.20890682    -0.11100
C2349       C  0.66731327  0.98241287  0.21620593    -0.01100
C2350       C  0.64456751  0.98301487  0.19794287    -0.06300
H2351       H  0.65959389  0.53160076  0.14463830     0.06200
H2352       H  0.66776011  0.96897320  0.23648739     0.09500
Br2353     Br  0.59404816  0.53437521  0.19973345    -0.06000
Br2354     Br  0.59716690  0.95745462  0.06724716    -0.03000
Br2355     Br  0.70989085  0.54314757  0.17140044    -0.00100
Br2356     Br  0.61779892  0.95906142  0.20939765    -0.04500
C2357       C  0.89849730  0.99817716  0.11253122    -0.11900
C2358       C  0.87654812  0.51381944  0.10675383     0.03600
C2359       C  0.85596964  0.51338075  0.12875719    -0.12400
C2360       C  0.85651135  0.99765944  0.15692943     0.18400
C2361       C  0.87849214  0.98245707  0.16339657    -0.09500
C2362       C  0.89936170  0.98293738  0.14140168    -0.02400
H2363       H  0.83917334  0.52514273  0.12355931     0.05000
C2364       C  0.83316931  0.99640377  0.17777396     0.20400
H2365       H  0.91598129  0.97088800  0.14643321     0.10100
C2366       C  0.81835974  0.97347424  0.17722833    -0.15800
C2367       C  0.79459920  0.97255088  0.19319139     0.03100
C2368       C  0.78548411  0.99472205  0.21045230    -0.11100
C2369       C  0.80058886  0.51736268  0.21199714    -0.01100
C2370       C  0.82407596  0.51851898  0.19546102    -0.06300
H2371       H  0.82496584  0.95648844  0.16345588     0.06200
H2372       H  0.79366369  0.53450796  0.22519767     0.09500
Br2373     Br  0.88064904  0.96098363  0.20203883    -0.06000
Br2374     Br  0.87362604  0.53711208  0.06990006    -0.03000
Br2375     Br  0.77531289  0.94066936  0.19072937    -0.00100
Br2376     Br  0.84266809  0.55085120  0.19721877    -0.04500
C2377       C  0.99132122  0.90951018  0.10992326    -0.11900
C2378       C  0.51242994  0.89230045  0.10887807     0.03600
C2379       C  0.51250330  0.86959436  0.12801984    -0.12400
C2380       C  0.99189809  0.86383878  0.14889271     0.18400
C2381       C  0.97123329  0.88157198  0.15096500    -0.09500
C2382       C  0.97095957  0.90412786  0.13136099    -0.02400
H2383       H  0.52895245  0.85665566  0.12717446     0.05000
C2384       C  0.99379329  0.84079557  0.17085901     0.20400
H2385       H  0.95458507  0.91715626  0.13231323     0.10100
C2386       C  0.50202802  0.84475934  0.20342482    -0.15800
C2387       C  0.50598660  0.82365273  0.22460082     0.03100
C2388       C  0.00258448  0.79767363  0.21302401    -0.11100
C2389       C  0.99307225  0.79376294  0.18079098    -0.01100
C2390       C  0.98855891  0.81510302  0.15978133    -0.06300
H2391       H  0.50535275  0.86449817  0.21246513     0.06200
H2392       H  0.98953494  0.77408513  0.17173889     0.09500
Br2393     Br  0.94295257  0.87556169  0.18001426    -0.06000
Br2394     Br  0.54229428  0.90000949  0.08326745    -0.03000
Br2395     Br  0.51391394  0.83200481  0.26973969    -0.00100
Br2396     Br  0.97473237  0.80845925  0.11656612    -0.04500
C2397       C  0.98139951  0.58962167  0.11139171    -0.11900
C2398       C  0.99634851  0.59007033  0.14056743     0.03600
C2399       C  0.99747111  0.61283720  0.16015684    -0.12400
C2400       C  0.98331398  0.63521011  0.15189721     0.18400
C2401       C  0.46695875  0.63424309  0.12424579    -0.09500
C2402       C  0.46639304  0.61180402  0.10400505    -0.02400
H2403       H  0.00991201  0.61329343  0.18163414     0.05000
C2404       C  0.98701460  0.65971206  0.17139277     0.20400
H2405       H  0.45422161  0.61174604  0.08226294     0.10100
C2406       C  0.50166127  0.68003145  0.15792095    -0.15800
C2407       C  0.50762391  0.70241792  0.17668987     0.03100
C2408       C  0.99855821  0.70498750  0.20931185    -0.11100
C2409       C  0.98323251  0.68505433  0.22248199    -0.01100
C2410       C  0.97758834  0.66244265  0.20385073    -0.06300
H2411       H  0.50916830  0.67807556  0.13306201     0.06200
H2412       H  0.97640443  0.68667996  0.24770325     0.09500
Br2413     Br  0.44465302  0.66291812  0.11392292    -0.06000
Br2414     Br  0.01696005  0.56104432  0.15408851    -0.03000
Br2415     Br  0.52909792  0.72855346  0.15736625    -0.00100
Br2416     Br  0.95740189  0.63544660  0.22364014    -0.04500
C2417       C  0.57453569  0.91580871  0.99839024    -0.11900
C2418       C  0.60038882  0.92202522  0.99109834     0.03600
C2419       C  0.61903280  0.90246038  0.99242865    -0.12400
C2420       C  0.61253331  0.87659456  0.99985917     0.18400
C2421       C  0.58692040  0.87025297  0.00656502    -0.09500
C2422       C  0.56827430  0.88970018  0.00563367    -0.02400
H2423       H  0.63878202  0.90736331  0.98716395     0.05000
C2424       C  0.63272330  0.85647111  0.99987131     0.20400
H2425       H  0.54868154  0.88418876  0.01077221     0.10100
C2426       C  0.63884271  0.84377292  0.02948349    -0.15800
C2427       C  0.65781497  0.82451306  0.03016423     0.03100
C2428       C  0.67107436  0.81802324  0.00096625    -0.11100
C2429       C  0.66524958  0.83094638  0.97150097    -0.01100
C2430       C  0.64616520  0.85005617  0.97072882    -0.06300
H2431       H  0.62878189  0.84884353  0.05206235     0.06200
H2432       H  0.67540168  0.82588388  0.94899638     0.09500
Br2433     Br  0.57608228  0.83528164  0.01631123    -0.06000
Br2434     Br  0.61211745  0.95605480  0.97771187    -0.03000
Br2435     Br  0.66505369  0.80765472  0.07135284    -0.00100
Br2436     Br  0.63856553  0.86611735  0.92908138    -0.04500
C2437       C  0.80450951  0.81365639  0.00217805    -0.11900
C2438       C  0.81235013  0.82616247  0.97308025     0.03600
C2439       C  0.83313141  0.84336581  0.97402472    -0.12400
C2440       C  0.84598751  0.84851667  0.00387860     0.18400
C2441       C  0.83791127  0.83615863  0.03306236    -0.09500
C2442       C  0.81745335  0.81860752  0.03195028    -0.02400
H2443       H  0.83891575  0.85321398  0.95162583     0.05000
C2444       C  0.86603935  0.86875923  0.00479689     0.20400
H2445       H  0.81146551  0.80892383  0.05437795     0.10100
C2446       C  0.86031497  0.89285402  0.01973620    -0.15800
C2447       C  0.87834651  0.91296418  0.02089910     0.03100
C2448       C  0.90279391  0.90912264  0.00650543    -0.11100
C2449       C  0.90853564  0.88470765  0.99195560    -0.01100
C2450       C  0.89036463  0.86466893  0.99082318    -0.06300
H2451       H  0.84160661  0.89599455  0.03063482     0.06200
H2452       H  0.92708068  0.88131152  0.98074646     0.09500
Br2453     Br  0.85406007  0.84288738  0.07496137    -0.06000
Br2454     Br  0.79491055  0.82035952  0.93188056    -0.03000
Br2455     Br  0.86825552  0.94440407  0.04392761    -0.00100
Br2456     Br  0.89973781  0.83216348  0.97006371    -0.04500
C2457       C  0.79969586  0.67871403  0.00587148    -0.11900
C2458       C  0.81129388  0.67086111  0.03557047     0.03600
C2459       C  0.83095289  0.65231796  0.03475120    -0.12400
C2460       C  0.83940075  0.64176332  0.00449772     0.18400
C2461       C  0.82745691  0.64952392  0.97481278    -0.09500
C2462       C  0.80764366  0.66778168  0.97576915    -0.02400
H2463       H  0.83965705  0.64608751  0.05773014     0.05000
C2464       C  0.85986337  0.62187603  0.00432216     0.20400
H2465       H  0.79877765  0.67400584  0.95288424     0.10100
C2466       C  0.85457950  0.59712544  0.99077992    -0.15800
C2467       C  0.87360922  0.57809259  0.98822326     0.03100
C2468       C  0.89819479  0.58317099  0.00138047    -0.11100
C2469       C  0.90334735  0.60790184  0.01538643    -0.01100
C2470       C  0.88455805  0.62729186  0.01661316    -0.06300
H2471       H  0.83563610  0.59285934  0.98118964     0.06200
H2472       H  0.92213218  0.61227583  0.02541460     0.09500
Br2473     Br  0.83808878  0.63676765  0.93215477    -0.06000
Br2474     Br  0.80078932  0.68502880  0.07749277    -0.03000
Br2475     Br  0.86508413  0.54680607  0.96384986    -0.00100
Br2476     Br  0.89413433  0.66099291  0.03397009    -0.04500
C2477       C  0.56808773  0.58883910  0.00732615    -0.11900
C2478       C  0.58932061  0.58728818  0.02890117     0.03600
C2479       C  0.60776719  0.60705520  0.02880184    -0.12400
C2480       C  0.60533381  0.62844536  0.00758899     0.18400
C2481       C  0.58383465  0.63042039  0.98677680    -0.09500
C2482       C  0.56534713  0.61071157  0.98683859    -0.02400
H2483       H  0.62423277  0.60561614  0.04504443     0.05000
C2484       C  0.62621726  0.64762701  0.00595097     0.20400
H2485       H  0.54905202  0.61220480  0.97032018     0.10100
C2486       C  0.64322957  0.64627538  0.97923182    -0.14600
C2487       C  0.66351285  0.66390844  0.97682520     0.03100
C2488       C  0.66685194  0.68324964  0.00147915    -0.11100
C2489       C  0.64982314  0.68455587  0.02820674    -0.01100
C2490       C  0.62961413  0.66684903  0.03066228    -0.06300
H2491       H  0.64069669  0.63140326  0.96023777     0.06200
H2492       H  0.65235090  0.69939872  0.04723477     0.09500
Br2493     Br  0.57902132  0.65969268  0.95798103    -0.06000
Br2494     Br  0.59355753  0.55938873  0.06003677    -0.03000
Br2495     Br  0.68585984  0.66096145  0.93939259    -0.00100
Br2496     Br  0.60698870  0.66992467  0.06777833    -0.04500
C2497       C  0.89848606  0.49807494  0.89378669    -0.11900
C2498       C  0.89571483  0.51907135  0.87164333     0.03600
C2499       C  0.87412732  0.52037661  0.85107857    -0.12400
C2500       C  0.85543135  0.00070280  0.85179919     0.18400
C2501       C  0.85888218  0.97908690  0.87276532    -0.09500
C2502       C  0.88005016  0.97814684  0.89395357    -0.02400
H2503       H  0.87171624  0.53694969  0.83481612     0.05000
C2504       C  0.83204867  0.00308072  0.83131035     0.20400
H2505       H  0.88210344  0.96182789  0.91071579     0.10100
C2506       C  0.82895567  0.98658517  0.80381110    -0.15800
C2507       C  0.80589990  0.98590058  0.78612512     0.03100
C2508       C  0.78510380  0.00189972  0.79608558    -0.11100
C2509       C  0.78874288  0.51921971  0.82307869    -0.01100
C2510       C  0.81202618  0.52009195  0.84038877    -0.06300
H2511       H  0.84438178  0.97350474  0.79671178     0.06200
H2512       H  0.77337998  0.53214686  0.83079707     0.09500
Br2513     Br  0.83484647  0.95070575  0.87381407    -0.06000
Br2514     Br  0.91997986  0.54721259  0.87010213    -0.03000
Br2515     Br  0.80405241  0.96090941  0.75065341    -0.00100
Br2516     Br  0.81554333  0.54417598  0.87687255    -0.04500
C2517       C  0.57169762  0.50107589  0.89202451    -0.11900
C2518       C  0.57490081  0.98155522  0.86742420     0.03600
C2519       C  0.59641128  0.98214614  0.84665684    -0.12400
C2520       C  0.61478884  0.00206880  0.84984424     0.18400
C2521       C  0.61064063  0.52241550  0.87302124    -0.09500
C2522       C  0.58950600  0.52154686  0.89413977    -0.02400
H2523       H  0.59935381  0.96643425  0.82889870     0.05000
C2524       C  0.63922237  0.00015999  0.83118655     0.20400
H2525       H  0.58703418  0.53690502  0.91251802     0.10100
C2526       C  0.63942006  0.50207163  0.79665388    -0.15800
C2527       C  0.66250194  0.50101326  0.77884826     0.03100
C2528       C  0.68639532  0.99868399  0.79573453    -0.11100
C2529       C  0.68552083  0.99511828  0.83033271    -0.01100
C2530       C  0.66245540  0.99568791  0.84779428    -0.06300
H2531       H  0.62150426  0.50451719  0.78346442     0.06200
H2532       H  0.70246700  0.99110116  0.84454865     0.09500
Br2533     Br  0.63344556  0.55172365  0.87702333    -0.06000
Br2534     Br  0.55180056  0.95257048  0.86303851    -0.03000
Br2535     Br  0.65951968  0.50244617  0.73145617    -0.00100
Br2536     Br  0.66359843  0.98895532  0.89448129    -0.04500
C2537       C  0.00076290  0.69992419  0.79376773    -0.11900
C2538       C  0.51734146  0.69140046  0.81909311     0.03600
C2539       C  0.51147918  0.66893895  0.83713886    -0.12400
C2540       C  0.98939496  0.65432874  0.83016750     0.18400
C2541       C  0.97252583  0.66297292  0.80531703    -0.09500
C2542       C  0.97813277  0.68581144  0.78759536    -0.02400
H2543       H  0.52440609  0.66262036  0.85650170     0.05000
C2544       C  0.98453702  0.63032048  0.84955311     0.20400
H2545       H  0.96530615  0.69194469  0.76810437     0.10100
C2546       C  0.96903681  0.63190214  0.87769771    -0.15800
C2547       C  0.96695526  0.61071577  0.89930044     0.03100
C2548       C  0.98089445  0.58736015  0.89314146    -0.11100
C2549       C  0.99520529  0.58534309  0.86379555    -0.01100
C2550       C  0.99708345  0.60657966  0.84212326    -0.06300
H2551       H  0.95897946  0.64996172  0.88331096     0.06200
H2552       H  0.00577762  0.56757778  0.85830191     0.09500
Br2553     Br  0.94249733  0.64334653  0.79372889    -0.06000
Br2554     Br  0.54812390  0.70995060  0.83033097    -0.03000
Br2555     Br  0.94419422  0.61487437  0.93624653    -0.00100
Br2556     Br  0.01739143  0.60266735  0.80293586    -0.04500
C2557       C  0.99390162  0.90843845  0.89298392    -0.11900
C2558       C  0.51465515  0.89073750  0.89519142     0.03600
C2559       C  0.51589861  0.86873096  0.87431215    -0.12400
C2560       C  0.99689460  0.86390789  0.85053532     0.18400
C2561       C  0.97652993  0.88193630  0.84748883    -0.09500
C2562       C  0.97518887  0.90400110  0.86854533    -0.02400
H2563       H  0.53191102  0.85533973  0.87651004     0.05000
C2564       C  0.99887913  0.83996760  0.82931971     0.20400
H2565       H  0.95906765  0.91725840  0.86650803     0.10100
C2566       C  0.99388147  0.81526958  0.84293220    -0.15800
C2567       C  0.99710489  0.79214455  0.82421810     0.03100
C2568       C  0.00519079  0.79345322  0.79092058    -0.11100
C2569       C  0.51021919  0.81829913  0.77753574    -0.01100
C2570       C  0.50744151  0.84125853  0.79640294    -0.06300
H2571       H  0.98803830  0.81394907  0.86855781     0.06200
H2572       H  0.51679259  0.81989587  0.75224291     0.09500
Br2573     Br  0.94964469  0.87654658  0.81581855    -0.06000
Br2574     Br  0.54266668  0.89634191  0.92502640    -0.03000
Br2575     Br  0.99273897  0.75955663  0.84667438    -0.00100
Br2576     Br  0.51723714  0.87378713  0.77678385    -0.04500
C2577       C  0.96086163  0.74610491  0.71203340    -0.11900
C2578       C  0.94983972  0.76981123  0.70151955     0.03600
C2579       C  0.92674229  0.76960645  0.68366331    -0.12400
C2580       C  0.91417982  0.74594008  0.67623461     0.18400
C2581       C  0.92497007  0.72230540  0.68764812    -0.09500
C2582       C  0.94815226  0.72254776  0.70516010    -0.02400
H2583       H  0.91893518  0.78790415  0.67475437     0.05000
C2584       C  0.89129762  0.74589557  0.65410573     0.20400
H2585       H  0.95662762  0.70417745  0.71265538     0.10100
C2586       C  0.89306853  0.73335903  0.62322719    -0.15800
C2587       C  0.87228226  0.73261744  0.60136989     0.03100
C2588       C  0.84893170  0.74515842  0.60982755    -0.11100
C2589       C  0.84695678  0.75713233  0.64116038    -0.01100
C2590       C  0.86791872  0.75785322  0.66304655    -0.06300
H2591       H  0.91082740  0.72389369  0.61611092     0.06200
H2592       H  0.82919959  0.76635874  0.64846832     0.09500
Br2593     Br  0.90882819  0.68909789  0.67984119    -0.06000
Br2594     Br  0.96623080  0.80276002  0.70994596    -0.03000
Br2595     Br  0.87692877  0.71259524  0.56131789    -0.00100
Br2596     Br  0.86355123  0.77501678  0.70500728    -0.04500
C2597       C  0.67128217  0.74549470  0.60597346    -0.11900
C2598       C  0.67113235  0.75842025  0.63709029     0.03600
C2599       C  0.64884737  0.75834884  0.65668274    -0.12400
C2600       C  0.62647949  0.74548198  0.64604683     0.18400
C2601       C  0.62671619  0.73231341  0.61536181    -0.09500
C2602       C  0.64878064  0.73249873  0.59570913    -0.02400
H2603       H  0.64893203  0.76847108  0.68033253     0.05000
C2604       C  0.60329884  0.74518562  0.66753883     0.20400
H2605       H  0.64831793  0.72223420  0.57216518     0.10100
C2606       C  0.58343128  0.76316183  0.66231299    -0.15800
C2607       C  0.56113702  0.76289537  0.68176031     0.03100
C2608       C  0.55780239  0.74371279  0.70677889    -0.11100
C2609       C  0.57830744  0.72607643  0.71207074    -0.01100
C2610       C  0.60068036  0.72680034  0.69292192    -0.06300
H2611       H  0.58536214  0.77766095  0.64307797     0.06200
H2612       H  0.57779325  0.71192017  0.73162260     0.09500
Br2613     Br  0.59744103  0.71329154  0.59953331    -0.06000
Br2614     Br  0.70007911  0.77770699  0.65348351    -0.03000
Br2615     Br  0.53640798  0.78996382  0.67296825    -0.00100
Br2616     Br  0.62752027  0.70229763  0.70241802    -0.04500
C2617       C  0.75832892  0.65615802  0.60602467    -0.11900
C2618       C  0.76654489  0.63034475  0.59762729     0.03600
C2619       C  0.76236173  0.60951499  0.61932018    -0.12400
C2620       C  0.75031852  0.61340068  0.64979597     0.18400
C2621       C  0.74269061  0.63892239  0.65885585    -0.09500
C2622       C  0.74667790  0.65995960  0.63715437    -0.02400
H2623       H  0.76872337  0.59002140  0.61240723     0.05000
C2624       C  0.74667645  0.59055344  0.67195309     0.20400
H2625       H  0.74008808  0.67926839  0.64444009     0.10100
C2626       C  0.76509970  0.58514250  0.69628243    -0.15800
C2627       C  0.76262441  0.56340974  0.71710457     0.03100
C2628       C  0.74162810  0.54622941  0.71334466    -0.11100
C2629       C  0.72326391  0.55169829  0.68888872    -0.01100
C2630       C  0.72557264  0.57359343  0.66842977    -0.06300
H2631       H  0.78130091  0.59815720  0.69941578     0.06200
H2632       H  0.70676472  0.53903246  0.68604018     0.09500
Br2633     Br  0.72630280  0.64567576  0.70043852    -0.06000
Br2634     Br  0.78457851  0.62145985  0.55777057    -0.03000
Br2635     Br  0.78724649  0.55975482  0.75189647    -0.00100
Br2636     Br  0.69890554  0.58002298  0.63688122    -0.04500
C2637       C  0.75848819  0.83788161  0.61166098    -0.11900
C2638       C  0.77501879  0.84057997  0.63917845     0.03600
C2639       C  0.77355789  0.86299244  0.65965308    -0.12400
C2640       C  0.75556765  0.88295061  0.65358898     0.18400
C2641       C  0.73898337  0.88009411  0.62619339    -0.09500
C2642       C  0.74066211  0.85795010  0.60562398    -0.02400
H2643       H  0.78670851  0.86497194  0.68027389     0.05000
C2644       C  0.75402907  0.90649304  0.67587677     0.20400
H2645       H  0.72777157  0.85635960  0.58465930     0.10100
C2646       C  0.75831787  0.93162227  0.66299823    -0.15800
C2647       C  0.75417179  0.95436347  0.68215612     0.03100
C2648       C  0.74531293  0.95235396  0.71502099    -0.11100
C2649       C  0.74242869  0.92710180  0.72837673    -0.01100
C2650       C  0.74695516  0.90442338  0.70938646    -0.06300
H2651       H  0.76427501  0.93357878  0.63749245     0.06200
H2652       H  0.73638060  0.92495651  0.75382103     0.09500
Br2653     Br  0.71303801  0.90547386  0.61608952    -0.06000
Br2654     Br  0.80103650  0.81534949  0.64873531    -0.03000
Br2655     Br  0.75919783  0.98741995  0.66107899    -0.00100
Br2656     Br  0.74220306  0.87110971  0.73014581    -0.04500
C2657       C  0.84922093  0.66454099  0.49061937    -0.11900
C2658       C  0.87151043  0.66852224  0.47148496     0.03600
C2659       C  0.89001347  0.64877508  0.46939481    -0.12400
C2660       C  0.88671436  0.62515401  0.48613151     0.18400
C2661       C  0.86453499  0.62101263  0.50483317    -0.09500
C2662       C  0.84599122  0.64057604  0.50681047    -0.02400
H2663       H  0.90712566  0.65188296  0.45484142     0.05000
C2664       C  0.90711529  0.60543248  0.48516686     0.20400
H2665       H  0.82913922  0.63719791  0.52157165     0.10100
C2666       C  0.92471792  0.60464208  0.51133404    -0.15800
C2667       C  0.94391760  0.58565410  0.51191387     0.03100
C2668       C  0.94592875  0.56758916  0.48561089    -0.11100
C2669       C  0.92814954  0.56824171  0.45956713    -0.01100
C2670       C  0.90866316  0.58695633  0.45929277    -0.06300
H2671       H  0.92319131  0.61855664  0.53161244     0.06200
H2672       H  0.92935148  0.55399872  0.43961629     0.09500
Br2673     Br  0.85895373  0.58899814  0.52822989    -0.06000
Br2674     Br  0.87751643  0.69967607  0.44647933    -0.03000
Br2675     Br  0.96611298  0.58418660  0.54973109    -0.00100
Br2676     Br  0.88416763  0.58613774  0.42386447    -0.04500
C2677       C  0.67756249  0.66016695  0.49693141    -0.11900
C2678       C  0.65100818  0.66636932  0.49617038     0.03600
C2679       C  0.63297854  0.64631456  0.49429308    -0.12400
C2680       C  0.64040798  0.62000987  0.49360112     0.18400
C2681       C  0.66662123  0.61365831  0.49426652    -0.09500
C2682       C  0.68486065  0.63360702  0.49609392    -0.02400
H2683       H  0.61280578  0.65128462  0.49340761     0.05000
C2684       C  0.62019084  0.59984081  0.49199536     0.20400
H2685       H  0.70490088  0.62815245  0.49670607     0.10100
C2686       C  0.61786048  0.58403873  0.46358994    -0.15800
C2687       C  0.59772834  0.56615703  0.46046745     0.03100
C2688       C  0.57931549  0.56431551  0.48573413    -0.11100
C2689       C  0.58162458  0.58008904  0.51408488    -0.01100
C2690       C  0.60195260  0.59763432  0.51748233    -0.06300
H2691       H  0.63158810  0.58581757  0.44368720     0.06200
H2692       H  0.56778560  0.57837963  0.53387054     0.09500
Br2693     Br  0.67863870  0.57816605  0.49329610    -0.06000
Br2694     Br  0.63692255  0.70126569  0.49744707    -0.03000
Br2695     Br  0.59592784  0.54472763  0.42132537    -0.00100
Br2696     Br  0.60452922  0.61741738  0.55794000    -0.04500
C2697       C  0.67286065  0.83339254  0.49756608    -0.11900
C2698       C  0.65089901  0.82909872  0.47767830     0.03600
C2699       C  0.63193550  0.84831399  0.47569769    -0.12400
C2700       C  0.63431808  0.87200169  0.49299350     0.18400
C2701       C  0.65596935  0.87637982  0.51307651    -0.09500
C2702       C  0.67506924  0.85716548  0.51517332    -0.02400
H2703       H  0.61533169  0.84493314  0.46012283     0.05000
C2704       C  0.61393952  0.89182062  0.48947251     0.20400
H2705       H  0.69170609  0.86083570  0.53057884     0.10100
C2706       C  0.59637106  0.89552208  0.51529728    -0.15800
C2707       C  0.57645280  0.91366561  0.51231000     0.03100
C2708       C  0.57429624  0.92865050  0.48339441    -0.11100
C2709       C  0.59154981  0.92469343  0.45740208    -0.01100
C2710       C  0.61111924  0.90619218  0.46007001    -0.06300
H2711       H  0.59809947  0.88415827  0.53769813     0.06200
H2712       H  0.58984410  0.93618159  0.43509492     0.09500
Br2713     Br  0.66058909  0.90861151  0.53705711    -0.06000
Br2714     Br  0.64623877  0.79845764  0.45045107    -0.03000
Br2715     Br  0.55274792  0.91765841  0.54821912    -0.00100
Br2716     Br  0.63360356  0.90153795  0.42305211    -0.04500
C2717       C  0.84429472  0.83818318  0.49798188    -0.11900
C2718       C  0.84105909  0.86366971  0.51130080     0.03600
C2719       C  0.85993408  0.88262072  0.50621605    -0.12400
C2720       C  0.88216860  0.87653348  0.48844427     0.18400
C2721       C  0.88569626  0.85113854  0.47578909    -0.09500
C2722       C  0.86681456  0.83226183  0.48041168    -0.02400
H2723       H  0.85757875  0.90201553  0.51684714     0.05000
C2724       C  0.90258894  0.89616088  0.48588380     0.20400
H2725       H  0.86973597  0.81288599  0.46999166     0.10100
C2726       C  0.92209714  0.89613020  0.50967760    -0.15800
C2727       C  0.94204254  0.91418844  0.50819457     0.03100
C2728       C  0.94263140  0.93257957  0.48245604    -0.11100
C2729       C  0.92307226  0.93261954  0.45859669    -0.01100
C2730       C  0.90307625  0.91450825  0.46013628    -0.06300
H2731       H  0.92173069  0.88200954  0.52952160     0.06200
H2732       H  0.92339040  0.94680407  0.43882718     0.09500
Br2733     Br  0.91626496  0.84140067  0.45257807    -0.06000
Br2734     Br  0.81255146  0.87333581  0.53880329    -0.03000
Br2735     Br  0.96762297  0.91339540  0.54232170    -0.00100
Br2736     Br  0.87701705  0.91537306  0.42666112    -0.04500
C2737       C  0.67593733  0.74517171  0.38797367    -0.11900
C2738       C  0.66055538  0.72267954  0.38429080     0.03600
C2739       C  0.63912774  0.72310977  0.36323521    -0.12400
C2740       C  0.63288404  0.74569528  0.34524825     0.18400
C2741       C  0.64919588  0.76763171  0.34757727    -0.09500
C2742       C  0.67045775  0.76725636  0.36883820    -0.02400
H2743       H  0.62705957  0.70592971  0.36131390     0.05000
C2744       C  0.60865746  0.74658886  0.32568806     0.20400
H2745       H  0.68232671  0.78455116  0.37114829     0.10100
C2746       C  0.58903814  0.76362487  0.33561075    -0.15800
C2747       C  0.56589079  0.76517294  0.31805441     0.03100
C2748       C  0.56104349  0.74813490  0.29068718    -0.11100
C2749       C  0.58153174  0.73196624  0.28008607    -0.01100
C2750       C  0.60498155  0.73123916  0.29707626    -0.06300
H2751       H  0.59195879  0.77622209  0.35698503     0.06200
H2752       H  0.58016949  0.72046844  0.25768566     0.09500
Br2753     Br  0.64332732  0.79843981  0.32185378    -0.06000
Br2754     Br  0.66873135  0.69080507  0.40685377    -0.03000
Br2755     Br  0.54270035  0.79209175  0.33260929    -0.00100
Br2756     Br  0.63218122  0.71051809  0.27869580    -0.04500
C2757       C  0.84981650  0.75062516  0.39335155    -0.11900
C2758       C  0.85073333  0.73483616  0.36449894     0.03600
C2759       C  0.87284350  0.73471436  0.34479841    -0.12400
C2760       C  0.89437801  0.74954607  0.35386576     0.18400
C2761       C  0.89355448  0.76501042  0.38272288    -0.09500
C2762       C  0.87138714  0.76569802  0.40189983    -0.02400
H2763       H  0.87354939  0.72239821  0.32287467     0.05000
C2764       C  0.91778943  0.74846385  0.33339865     0.20400
H2765       H  0.87123455  0.77769559  0.42412088     0.10100
C2766       C  0.92011027  0.76530299  0.30643514    -0.15800
C2767       C  0.94275765  0.76625891  0.28793925     0.03100
C2768       C  0.96346372  0.74945050  0.29579257    -0.11100
C2769       C  0.96072868  0.73231424  0.32267348    -0.01100
C2770       C  0.93839482  0.73204440  0.34168827    -0.06300
H2771       H  0.90451746  0.77848928  0.30052255     0.06200
H2772       H  0.97619583  0.71921175  0.32928990     0.09500
Br2773     Br  0.92268241  0.78464280  0.39762051    -0.06000
Br2774     Br  0.82372584  0.71106792  0.35265682    -0.03000
Br2775     Br  0.94461209  0.79298632  0.25501887    -0.00100
Br2776     Br  0.93724691  0.70971543  0.37958618    -0.04500
C2777       C  0.76207119  0.84004375  0.39381258    -0.11900
C2778       C  0.75228970  0.83801173  0.36117489     0.03600
C2779       C  0.75132666  0.86027549  0.34099403    -0.12400
C2780       C  0.76004413  0.88468823  0.35254256     0.18400
C2781       C  0.77055411  0.88656815  0.38447333    -0.09500
C2782       C  0.77158477  0.86447998  0.40466464    -0.02400
H2783       H  0.74292086  0.85873604  0.31653579     0.05000
C2784       C  0.75544185  0.90853143  0.33262821     0.20400
H2785       H  0.77949553  0.86663107  0.42933073     0.10100
C2786       C  0.73267253  0.92248742  0.33763002    -0.15800
C2787       C  0.72724871  0.94510864  0.31962513     0.03100
C2788       C  0.74476618  0.95423090  0.29571574    -0.11100
C2789       C  0.76803074  0.94066398  0.29148584    -0.01100
C2790       C  0.77340963  0.91794103  0.30970049    -0.06300
H2791       H  0.71901066  0.91572151  0.35577983     0.06200
H2792       H  0.78169602  0.94725580  0.27325277     0.09500
Br2793     Br  0.78277836  0.91927435  0.40198055    -0.06000
Br2794     Br  0.73801670  0.80621146  0.34337995    -0.03000
Br2795     Br  0.69593322  0.96314230  0.32986091    -0.00100
Br2796     Br  0.80527053  0.90011024  0.30250495    -0.04500
C2797       C  0.76514170  0.66134037  0.38746670    -0.11900
C2798       C  0.78434231  0.64189164  0.38642885     0.03600
C2799       C  0.78215992  0.62070124  0.36429385    -0.12400
C2800       C  0.76099402  0.61840840  0.34294852     0.18400
C2801       C  0.74207385  0.63818886  0.34359040    -0.09500
C2802       C  0.74446265  0.65954380  0.36538253    -0.02400
H2803       H  0.79681607  0.60566741  0.36414763     0.05000
C2804       C  0.75778809  0.59413014  0.32269676     0.20400
H2805       H  0.72938916  0.67413317  0.36628139     0.10100
C2806       C  0.75383947  0.57030754  0.33896231    -0.15800
C2807       C  0.74886642  0.54720088  0.32118602     0.03100
C2808       C  0.74778058  0.54751564  0.28641282    -0.11100
C2809       C  0.75253970  0.57118614  0.26997990    -0.01100
C2810       C  0.75778434  0.59432030  0.28779628    -0.06300
H2811       H  0.75384731  0.56984404  0.36574880     0.06200
H2812       H  0.75199075  0.57168999  0.24320019     0.09500
Br2813     Br  0.71137426  0.63581690  0.31756955    -0.06000
Br2814     Br  0.81409731  0.64365620  0.41429499    -0.03000
Br2815     Br  0.74173057  0.51621734  0.34575081    -0.00100
Br2816     Br  0.76515963  0.62558150  0.26357015    -0.04500
loop_ 
_geom_bond_atom_site_label_1 
_geom_bond_atom_site_label_2 
_geom_bond_distance 
_geom_bond_site_symmetry_2 
_ccdc_geom_bond_type 
O1           C12   1.295       .  A
O1          Eu37   2.482       .  S
O2           C13   1.301       .  A
O2          Eu36   2.514       .  S
O3           C14   1.290       .  A
O3           Eu9   2.451       .  S
O4           C15   1.291       .  A
O4           Eu9   2.456       .  S
O5           C15   1.283       .  A
O5          Eu39   2.427       .  S
O6           C14   1.288       .  A
O6          Eu38   2.447       .  S
O7           C13   1.289       .  A
O7           Eu9   2.454       .  S
O8           C12   1.291       .  A
O8           Eu9   2.461       .  S
Eu9          O19   2.353       .  S
Eu9          O11   2.344       .  S
Eu9          O10   2.351       .  S
Eu9          O17   2.356       .  S
O10         Eu39   2.350       .  S
O10         Eu36   2.363       .  S
O11         Eu37   2.354       .  S
O11         Eu38   2.342       .  S
C12         C685   1.481       .  S
C13         C505   1.507       .  S
C14         C545   1.476       .  S
C15         C565   1.487       .  S
H16          O17   0.966       .  S
O17         Eu38   2.357       .  S
O17         Eu36   2.375       .  S
H18          O19   0.965       .  S
O19         Eu37   2.360       .  S
O19         Eu39   2.349       .  S
O20          C43   1.300       .  A
O20         Eu36   2.512       .  S
O21          C44   1.295       .  A
O21         Eu37   2.484       .  S
O22          C45   1.288       .  A
O22         Eu38   2.442       .  S
O23          C46   1.290       .  A
O23         Eu39   2.447       .  S
O24          C47   1.292       .  A
O24         Eu39   2.470       .  S
O25          C48   1.289       .  A
O25         Eu38   2.443       .  S
O26          C49   1.289       .  A
O26         Eu40   2.450       .  S
O27          C50   1.292       .  A
O27         Eu40   2.467       .  S
O28          C49   1.290       .  A
O28         Eu38   2.451       .  S
O29          C50   1.288       .  A
O29         Eu39   2.445       .  S
O30          C45   1.299       .  A
O30         Eu36   2.501       .  S
O31          C48   1.294       .  A
O31         Eu37   2.476       .  S
O32          C47   1.293       .  A
O32         Eu37   2.475       .  S
O33          C46   1.299       .  A
O33         Eu36   2.507       .  S
O34          C43   1.291       .  A
O34         Eu40   2.451       .  S
O35          C44   1.291       .  A
O35         Eu40   2.451       .  S
Eu36         O54   2.373       .  S
Eu36         O42   2.370       .  S
Eu37         O41   2.365       .  S
Eu37         O52   2.358       .  S
Eu38         O52   2.344       .  S
Eu38         O42   2.350       .  S
Eu39         O41   2.346       .  S
Eu39         O54   2.353       .  S
Eu40         O41   2.356       .  S
Eu40         O52   2.352       .  S
Eu40         O54   2.350       .  S
Eu40         O42   2.358       .  S
C43         C525   1.494       .  S
C44         C665   1.494       .  S
C45         C476   1.492       .  S
C46         C485   1.499       .  S
C47         C625   1.480       .  S
C48         C645   1.482       .  S
C49         C605   1.478       .  S
C50         C585   1.482       .  S
H51          O52   0.966       .  S
H53          O54   0.966       .  S
N55          C60   1.352   1_565  A
N55         C763   1.351       .  A
N55          H87   1.039       .  S
N56          C64   1.348       .  A
N56        C1471   1.347       .  A
N57          C62   1.349   1_565  A
N57         C765   1.351       .  A
N57          H88   1.040       .  S
N58          C66   1.349       .  A
N58        C1473   1.350       .  A
C59         N759   1.351       .  A
C59          C67   1.388       .  A
C59          C75   1.412       .  A
C60          C76   1.411       .  A
C60          C68   1.387       .  A
C61         N761   1.351       .  A
C61          C69   1.387       .  A
C61          C78   1.410       .  A
C62          C77   1.409       .  A
C62          C70   1.387       .  A
C63        N1464   1.347       .  A
C63          C75   1.407       .  A
C63          C71   1.386       .  A
C64          C78   1.408       .  A
C64          C72   1.386       .  A
C65        N1466   1.350       .  A
C65          C73   1.386       .  A
C65          C76   1.410       .  A
C66          C74   1.387       .  A
C66          C77   1.411       .  A
C67         C772   1.373       .  A
C67          H79   1.082       .  S
C68         C771   1.373   1_545  A
C68          H80   1.082       .  S
C69         C774   1.375       .  A
C69          H81   1.082       .  S
C70         C773   1.375   1_545  A
C70          H82   1.083       .  S
C71        C1480   1.374   1_455  A
C71          H83   1.082       .  S
C72        C1479   1.374       .  A
C72          H84   1.082       .  S
C73        C1482   1.374   1_455  A
C73          H85   1.082       .  S
C74        C1481   1.374       .  A
C74          H86   1.082       .  S
C75         C596   1.477       .  S
C76         C576   1.482       .  S
C77         C556   1.476       .  S
C78         C616   1.480       .  S
O89         C100   1.298       .  A
O89        Eu125   2.501       .  S
O90         C101   1.296       .  A
O90        Eu124   2.491       .  S
O91         C102   1.291   1_554  A
O91       Eu1505   2.450   1_455  S
O92         C103   1.292       .  A
O92         Eu97   2.461       .  S
O93         C103   1.286       .  A
O93        Eu127   2.436       .  S
O94         C102   1.283       .  A
O94        Eu126   2.427   1_556  S
O95         C101   1.288       .  A
O95         Eu97   2.441       .  S
O96         C100   1.291       .  A
O96         Eu97   2.458   1_556  S
Eu97       O1499   2.450       .  S
Eu97        O107   2.350   1_554  S
Eu97         O98   2.352       .  S
Eu97       O1507   2.342   1_554  S
Eu97       O1513   2.351       .  S
O98        Eu127   2.345       .  S
O98        Eu124   2.363       .  S
O99        Eu126   2.344   1_556  S
O99       Eu1505   2.342   1_456  S
O99       Eu1533   2.347   1_455  S
C100        C445   1.490       .  S
C101        C265   1.476       .  S
C102        C305   1.482       .  S
C103        C336   1.480       .  S
H104        O105   0.967       .  S
O105       Eu126   2.352       .  S
O105      Eu1505   2.351   1_455  S
O105      Eu1532   2.365   1_455  S
H106        O107   0.963       .  S
O107       Eu125   2.366       .  S
O107       Eu127   2.358   1_556  S
O108        C131   1.298       .  A
O108       Eu828   2.498   1_545  S
O109        C132   1.296       .  A
O109       Eu829   2.486   1_545  S
O110        C133   1.289       .  A
O110       Eu126   2.448       .  S
O111        C134   1.291       .  A
O111       Eu127   2.460       .  S
O112        C839   1.291       .  A
O112       Eu127   2.455   1_556  S
O113        C840   1.292       .  A
O113       Eu126   2.464   1_556  S
O114        C137   1.289       .  A
O114      Eu1536   2.452   1_455  S
O115        C138   1.287       .  A
O115       Eu128   2.434       .  S
O116        C137   1.287       .  A
O116       Eu830   2.440       .  S
O117        C138   1.287       .  A
O117       Eu831   2.444   1_545  S
O118        C133   1.297       .  A
O118      Eu1532   2.492   1_455  S
O119        C136   1.292   1_565  A
O119      Eu2237   2.468   1_455  S
O120        C135   1.292       .  A
O120       Eu829   2.464       .  S
O121        C134   1.296       .  A
O121       Eu124   2.490       .  S
O122        C131   1.290       .  A
O122       Eu128   2.451       .  S
O123        C132   1.290       .  A
O123       Eu128   2.454   1_556  S
Eu124       O812   2.498       .  S
Eu124      O1526   2.492       .  S
Eu124      O1513   2.365       .  S
Eu124       O846   2.363       .  S
Eu124      O2242   2.369       .  S
Eu125       O813   2.486       .  S
Eu125      O2231   2.468       .  S
Eu125       O824   2.464       .  S
Eu125      O1507   2.347       .  S
Eu125       O833   2.358       .  S
Eu125      O2252   2.371       .  S
Eu126       O820   2.440       .  S
Eu126       O844   2.345   1_554  S
Eu126       O834   2.350       .  S
Eu127       O821   2.444       .  S
Eu127       O833   2.345   1_554  S
Eu127       O846   2.349       .  S
Eu128      O1522   2.452       .  S
Eu128       O129   2.347   1_554  S
Eu128       O142   2.355       .  S
Eu128      O1548   2.350   1_554  S
Eu128      O1538   2.350       .  S
O129       Eu829   2.358   1_545  S
O129       Eu831   2.345   1_546  S
O130      Eu2236   2.369   1_445  S
O130       Eu830   2.350       .  S
O130      Eu1536   2.350   1_455  S
C131        C285   1.492       .  S
C132        C436   1.489       .  S
C133        C225   1.487       .  S
C134        C245   1.490       .  S
C135        O816   1.291       .  A
C135        C385   1.473       .  S
C136        O817   1.292       .  A
C136        C405   1.479       .  S
C137        C365   1.470       .  S
C138        C356   1.473       .  S
H139        O140   0.967       .  S
O140      Eu2237   2.371   1_445  S
O140       Eu830   2.345   1_556  S
O140      Eu1536   2.350   1_456  S
H141        O142   0.965       .  S
O142       Eu828   2.363   1_545  S
O142       Eu831   2.349   1_545  S
N143        C148   1.351   1_554  A
N143        C147   1.350   1_554  A
N143        H175   1.038       .  S
N144        C151   1.348       .  A
N144        C152   1.348       .  A
N145        C150   1.350   1_554  A
N145        C149   1.352   1_554  A
N145        H176   1.038       .  S
N146        C153   1.350       .  A
N146        C154   1.349       .  A
C147        C155   1.388       .  A
C147        C163   1.411   1_556  A
C148        C164   1.410   1_556  A
C148        C156   1.387       .  A
C149        C157   1.387       .  A
C149        C166   1.412   1_556  A
C150        C165   1.411   1_556  A
C150        C158   1.387       .  A
C151        C163   1.407       .  A
C151        C159   1.386       .  A
C152        C166   1.408       .  A
C152        C160   1.386       .  A
C153        C161   1.386       .  A
C153        C164   1.410       .  A
C154        C162   1.387       .  A
C154        C165   1.410       .  A
C155        C156   1.372       .  A
C155        H167   1.082       .  S
C156        H168   1.082       .  S
C157        C158   1.375       .  A
C157        H169   1.083       .  S
C158        H170   1.082       .  S
C159        C160   1.372       .  A
C159        H171   1.082       .  S
C160        H172   1.082       .  S
C161        C162   1.373       .  A
C161        H173   1.082       .  S
C162        H174   1.082       .  S
C163        C345   1.473       .  S
C164        C325   1.478       .  S
C165        C316   1.476       .  S
C166        C376   1.480       .  S
C177        C178   1.547       .  S
C177        C181   1.535       .  S
C177       C1591   1.541       .  S
C177        C636   1.549       .  S
C178        H185   1.083       .  S
C178       C1587   1.364       .  D
C179        C180   1.539       .  S
C179       C1586   1.364       .  D
C179        C296   1.485       .  S
C180        C184   1.544       .  S
C180        C182   1.546       .  S
C180        H186   1.109       .  S
C181        H187   1.086       .  S
C181       C1590   1.368       .  D
C182       C1589   1.368       .  D
C182        C276   1.494       .  S
C183       C1585   1.541       .  S
C183        H188   1.085       .  S
C183        C184   1.372       .  D
C184        C656   1.496       .  S
C189        C190   1.549       .  S
C189        C195   1.542       .  S
C189        C897   1.538       .  S
C189        C236   1.548       .  S
C190        H197   1.080       .  S
C190        C191   1.366       .  D
C191        C192   1.543       .  S
C191        C676   1.495       .  S
C192        C196   1.538       .  S
C192        C898   1.543       .  S
C192        H198   1.111       .  S
C193        C893   1.538   1_545  S
C193        H199   1.086       .  S
C193        C194   1.364       .  D
C194        C896   1.543   1_545  S
C194        C696   1.489       .  S
C195        H200   1.086       .  S
C195        C196   1.368       .  D
C196        C256   1.478       .  S
C201        C202   1.536       .  S
C201        C205   1.546       .  S
C201       C1615   1.541       .  S
C201        C496   1.549       .  S
C202        H209   1.086       .  S
C202       C1611   1.368       .  D
C203        C204   1.550       .  S
C203       C1610   1.368       .  D
C203        C456   1.500       .  S
C204        C208   1.540       .  S
C204        C206   1.545       .  S
C204        H210   1.110       .  S
C205        H211   1.082       .  S
C205       C1614   1.369       .  D
C206       C1613   1.369       .  D
C206        C425   1.489       .  S
C207       C1609   1.541       .  S
C207        H212   1.086       .  S
C207        C208   1.364       .  D
C208        C465   1.483       .  S
C213        C219   1.552       .  S
C213        C217   1.535       .  S
C213        C918   1.535       .  S
C213        C416   1.547       .  S
C214        C917   1.535   1_545  S
C214        H221   1.086       .  S
C214        C215   1.364       .  D
C215        C920   1.549       .  S
C215        C516   1.493       .  S
C216        C220   1.544       .  S
C216        C218   1.555       .  S
C216        C919   1.549       .  S
C216        H222   1.107       .  S
C217        H223   1.086       .  S
C217        C218   1.369       .  D
C218        C536   1.504       .  S
C219        H224   1.080       .  S
C219        C220   1.369       .  D
C220        C396   1.498       .  S
C225        C226   1.415       .  A
C225        C934   1.404       .  A
C226        C227   1.398       .  A
C226       Br242   1.915       .  S
C227        C228   1.398       .  A
C227        H231   1.084       .  S
C228        C232   1.483       .  S
C228        C933   1.409       .  A
C229        C230   1.405       .  A
C229        C932   1.409       .  A
C229       Br241   1.916       .  S
C230        C929   1.404   1_545  A
C230        H233   1.079       .  S
C232        C238   1.400       .  A
C232        C938   1.401       .  A
C234        C235   1.406       .  A
C234        C936   1.401       .  A
C234        H239   1.084       .  S
C235        C940   1.425   1_545  A
C235       Br243   1.924       .  S
C236        C237   1.416       .  A
C236        C939   1.425       .  A
C237        C238   1.398       .  A
C237        H240   1.074       .  S
C238       Br244   1.919       .  S
C245        C250   1.409       .  A
C245        C950   1.415       .  A
C246        C247   1.397       .  A
C246        C949   1.415   1_545  A
C246       Br262   1.920       .  S
C247        C952   1.399   1_545  A
C247        H251   1.084       .  S
C248        C252   1.485       .  S
C248        C249   1.410       .  A
C248        C951   1.399       .  A
C249        C250   1.409       .  A
C249       Br261   1.920       .  S
C250        H253   1.083       .  S
C252        C254   1.405       .  A
C252        C962   1.412       .  A
C254        C255   1.401       .  A
C254        H259   1.083       .  S
C255        C256   1.408       .  A
C255       Br263   1.918       .  S
C256        C961   1.401       .  A
C257        C258   1.400       .  A
C257        C960   1.401   1_545  A
C257        H260   1.084       .  S
C258        C956   1.411   1_545  A
C258       Br264   1.918       .  S
C265        C270   1.402       .  A
C265       C1674   1.410       .  A
C266        C267   1.400       .  A
C266       C1673   1.410   1_455  A
C266       Br282   1.917       .  S
C267       C1676   1.402   1_455  A
C267        H271   1.084       .  S
C268        C272   1.484       .  S
C268        C269   1.410       .  A
C268       C1675   1.402       .  A
C269        C270   1.404       .  A
C269       Br281   1.916       .  S
C270        H273   1.083       .  S
C272        C278   1.410       .  A
C272       C1682   1.397       .  A
C274        C275   1.397       .  A
C274       C1680   1.397   1_455  A
C274        H279   1.084       .  S
C275       C1684   1.415       .  A
C275       Br283   1.915       .  S
C276        C277   1.406       .  A
C276       C1683   1.415       .  A
C277        C278   1.407       .  A
C277        H280   1.083       .  S
C278       Br284   1.917       .  S
C285        C286   1.413       .  A
C285       C1698   1.410       .  A
C286        C287   1.403       .  A
C286       Br302   1.914       .  S
C287        C288   1.403       .  A
C287        H291   1.084       .  S
C288        C292   1.486       .  S
C288       C1697   1.406       .  A
C289        C290   1.403       .  A
C289       C1696   1.406       .  A
C289       Br301   1.918       .  S
C290       C1693   1.410       .  A
C290        H293   1.084       .  S
C292        C298   1.408       .  A
C292       C1702   1.405       .  A
C294        C295   1.402       .  A
C294       C1700   1.405   1_455  A
C294        H299   1.083       .  S
C295       C1704   1.407   1_455  A
C295       Br303   1.917       .  S
C296        C297   1.405       .  A
C296       C1703   1.407       .  A
C297        C298   1.405       .  A
C297        H300   1.084       .  S
C298       Br304   1.918       .  S
C305        C306   1.420       .  A
C305        C310   1.407   1_556  A
C306        C307   1.396       .  A
C306       Br322   1.926       .  S
C307        C308   1.400       .  A
C307        H311   1.084       .  S
C308        C312   1.472       .  S
C308        C309   1.404   1_556  A
C309        C310   1.391       .  A
C309       Br321   1.919       .  S
C310        H313   1.083       .  S
C312        C314   1.403   1_556  A
C312        C318   1.409       .  A
C314        C315   1.396       .  A
C314        H319   1.084       .  S
C315        C316   1.407       .  A
C315       Br323   1.918       .  S
C316        C317   1.400   1_554  A
C317        C318   1.395       .  A
C317        H320   1.083       .  S
C318       Br324   1.920       .  S
C325        C326   1.405   1_554  A
C325        C330   1.401       .  A
C326        C327   1.398       .  A
C326       Br342   1.918       .  S
C327        C328   1.403   1_556  A
C327        H331   1.083       .  S
C328        C332   1.473       .  S
C328        C329   1.409       .  A
C329        C330   1.396       .  A
C329       Br341   1.919       .  S
C330        H333   1.084       .  S
C332        C334   1.399       .  A
C332        C338   1.406   1_554  A
C334        C335   1.395       .  A
C334        H339   1.084       .  S
C335        C336   1.417       .  A
C335       Br343   1.923       .  S
C336        C337   1.407   1_554  A
C337        C338   1.397       .  A
C337        H340   1.083       .  S
C338       Br344   1.918       .  S
C345        C346   1.405       .  A
C345        C350   1.398   1_554  A
C346        C347   1.396       .  A
C346       Br362   1.918       .  S
C347        C348   1.404       .  A
C347        H351   1.083       .  S
C348        C352   1.473       .  S
C348        C349   1.411   1_554  A
C349        C350   1.392       .  A
C349       Br361   1.921       .  S
C350        H353   1.084       .  S
C352        C354   1.401   1_554  A
C352        C358   1.408       .  A
C354        C355   1.393       .  A
C354        H359   1.084       .  S
C355        C356   1.412   1_556  A
C355       Br363   1.923       .  S
C356        C357   1.406       .  A
C357        C358   1.394       .  A
C357        H360   1.084       .  S
C358       Br364   1.920       .  S
C365        C366   1.412       .  A
C365        C370   1.403   1_554  A
C366        C367   1.397       .  A
C366       Br382   1.922       .  S
C367        C368   1.400       .  A
C367        H371   1.084       .  S
C368        C372   1.469       .  S
C368        C369   1.406   1_554  A
C369        C370   1.396       .  A
C369       Br381   1.919       .  S
C370        H373   1.084       .  S
C372        C374   1.401   1_554  A
C372        C378   1.406       .  A
C374        C375   1.396       .  A
C374        H379   1.084       .  S
C375        C376   1.408   1_556  A
C375       Br383   1.918       .  S
C376        C377   1.402       .  A
C377        C378   1.395       .  A
C377        H380   1.084       .  S
C378       Br384   1.917       .  S
C385        C386   1.410   1_565  A
C385       C1094   1.402       .  A
C386        C387   1.401       .  A
C386       Br402   1.919       .  S
C387       C1092   1.403       .  A
C387        H391   1.083       .  S
C388        C392   1.480       .  S
C388        C389   1.409       .  A
C388       C1091   1.403       .  A
C389        C390   1.398       .  A
C389       Br401   1.920       .  S
C390       C1089   1.402       .  A
C390        H393   1.084       .  S
C392        C394   1.399       .  A
C392       C1102   1.406       .  A
C394        C395   1.399       .  A
C394        H399   1.084       .  S
C395        C396   1.416       .  A
C395       Br403   1.914       .  S
C396       C1101   1.412       .  A
C397        C398   1.402       .  A
C397       C1100   1.412       .  A
C397        H400   1.083       .  S
C398       C1096   1.406       .  A
C398       Br404   1.921       .  S
C405        C410   1.402       .  A
C405       C1110   1.412   1_545  A
C406        C407   1.405       .  A
C406       C1109   1.412       .  A
C406       Br422   1.918       .  S
C407        C408   1.405       .  A
C407        H411   1.083       .  S
C408        C412   1.487       .  S
C408       C1113   1.410       .  A
C409        C410   1.398       .  A
C409       C1112   1.410       .  A
C409       Br421   1.920       .  S
C410        H413   1.084       .  S
C412        C418   1.405       .  A
C412       C1118   1.401       .  A
C414        C415   1.406       .  A
C414       C1116   1.401       .  A
C414        H419   1.084       .  S
C415       C1120   1.427   1_545  A
C415       Br423   1.924       .  S
C416        C417   1.413       .  A
C416       C1119   1.427       .  A
C417        C418   1.398       .  A
C417        H420   1.075       .  S
C418       Br424   1.922       .  S
C425        C430   1.406       .  A
C425       C1834   1.411       .  A
C426        C427   1.399       .  A
C426       C1833   1.411       .  A
C426       Br442   1.919       .  S
C427       C1836   1.402   1_455  A
C427        H431   1.084       .  S
C428        C432   1.483       .  S
C428        C429   1.408       .  A
C428       C1835   1.402       .  A
C429        C430   1.406       .  A
C429       Br441   1.918       .  S
C430        H433   1.081       .  S
C432        C434   1.400       .  A
C432        C438   1.408       .  A
C434        C435   1.401       .  A
C434        H439   1.084       .  S
C435        C436   1.417       .  A
C435       Br443   1.921       .  S
C436        C437   1.407       .  A
C437        C438   1.404       .  A
C437        H440   1.083       .  S
C438       Br444   1.917       .  S
C445        C450   1.406       .  A
C445       C1854   1.414       .  A
C446        C447   1.402       .  A
C446       C1853   1.414   1_455  A
C446       Br462   1.914       .  S
C447       C1856   1.401   1_455  A
C447        H451   1.084       .  S
C448        C452   1.491       .  S
C448        C449   1.412       .  A
C448       C1855   1.401       .  A
C449        C450   1.409       .  A
C449       Br461   1.917       .  S
C450        H453   1.083       .  S
C452        C454   1.406       .  A
C452       C1866   1.407       .  A
C454        C455   1.408       .  A
C454        H459   1.083       .  S
C455        C456   1.414       .  A
C455       Br463   1.917       .  S
C456       C1865   1.409       .  A
C457        C458   1.401       .  A
C457       C1864   1.409       .  A
C457        H460   1.083       .  S
C458       C1860   1.407   1_455  A
C458       Br464   1.918       .  S
C465        C466   1.409       .  A
C465        C470   1.401       .  A
C466        C467   1.404       .  A
C466       Br482   1.917       .  S
C467        C468   1.406       .  A
C467        H471   1.083       .  S
C468        C472   1.491       .  S
C468        C469   1.412       .  A
C469        C470   1.401       .  A
C469       Br481   1.919       .  S
C470        H473   1.082       .  S
C472        C474   1.401       .  A
C472        C478   1.411       .  A
C474        C475   1.399       .  A
C474        H479   1.084       .  S
C475        C476   1.418       .  A
C475       Br483   1.924       .  S
C476        C477   1.406       .  A
C477        C478   1.407       .  A
C477        H480   1.080       .  S
C478       Br484   1.917       .  S
C485        C486   1.416       .  A
C485        C490   1.411       .  A
C486        C487   1.409       .  A
C486       Br502   1.920       .  S
C487        C488   1.406       .  A
C487        H491   1.083       .  S
C488        C492   1.492       .  S
C488        C489   1.406       .  A
C489        C490   1.401       .  A
C489       Br501   1.919       .  S
C490        H493   1.083       .  S
C492        C494   1.402       .  A
C492        C498   1.404       .  A
C494        C495   1.407       .  A
C494        H499   1.083       .  S
C495        C496   1.425       .  A
C495       Br503   1.925       .  S
C496        C497   1.416       .  A
C497        C498   1.404       .  A
C497        H500   1.076       .  S
C498       Br504   1.918       .  S
C505        C506   1.425       .  A
C505        C510   1.411       .  A
C506        C507   1.402       .  A
C506       Br522   1.919       .  S
C507        C508   1.397       .  A
C507        H511   1.084       .  S
C508        C512   1.490       .  S
C508        C509   1.408       .  A
C509        C510   1.409       .  A
C509       Br521   1.917       .  S
C510        H513   1.083       .  S
C512        C514   1.403       .  A
C512        C518   1.409       .  A
C514        C515   1.405       .  A
C514        H519   1.083       .  S
C515        C516   1.413       .  A
C515       Br523   1.914       .  S
C516        C517   1.405       .  A
C517        C518   1.402       .  A
C517        H520   1.084       .  S
C518       Br524   1.916       .  S
C525        C526   1.413       .  A
C525        C530   1.406       .  A
C526        C527   1.409       .  A
C526       Br542   1.913       .  S
C527        C528   1.408       .  A
C527        H531   1.083       .  S
C528        C532   1.499       .  S
C528        C529   1.411       .  A
C529        C530   1.401       .  A
C529       Br541   1.920       .  S
C530        H533   1.084       .  S
C532        C534   1.408       .  A
C532        C538   1.410       .  A
C534        C535   1.408       .  A
C534        H539   1.083       .  S
C535        C536   1.413       .  A
C535       Br543   1.916       .  S
C536        C537   1.411       .  A
C537        C538   1.404       .  A
C537        H540   1.083       .  S
C538       Br544   1.920       .  S
C545        C546   1.415       .  A
C545        C550   1.404       .  A
C546        C547   1.398       .  A
C546       Br562   1.919       .  S
C547        C548   1.399       .  A
C547        H551   1.084       .  S
C548        C552   1.466       .  S
C548        C549   1.402       .  A
C549        C550   1.393       .  A
C549       Br561   1.919       .  S
C550        H553   1.079       .  S
C552        C554   1.401       .  A
C552        C558   1.405       .  A
C554        C555   1.394       .  A
C554        H559   1.084       .  S
C555        C556   1.406       .  A
C555       Br563   1.919       .  S
C556        C557   1.403       .  A
C557        C558   1.395       .  A
C557        H560   1.084       .  S
C558       Br564   1.919       .  S
C565        C566   1.423       .  A
C565        C570   1.409       .  A
C566        C567   1.394       .  A
C566       Br582   1.928       .  S
C567        C568   1.398       .  A
C567        H571   1.084       .  S
C568        C572   1.477       .  S
C568        C569   1.407       .  A
C569        C570   1.397       .  A
C569       Br581   1.918       .  S
C570        H573   1.083       .  S
C572        C574   1.403       .  A
C572        C578   1.410       .  A
C574        C575   1.399       .  A
C574        H579   1.083       .  S
C575        C576   1.408       .  A
C575       Br583   1.919       .  S
C576        C577   1.401       .  A
C577        C578   1.396       .  A
C577        H580   1.083       .  S
C578       Br584   1.920       .  S
C585        C586   1.416       .  A
C585        C590   1.407       .  A
C586        C587   1.396       .  A
C586       Br602   1.921       .  S
C587        C588   1.398       .  A
C587        H591   1.084       .  S
C588        C592   1.475       .  S
C588        C589   1.408       .  A
C589        C590   1.401       .  A
C589       Br601   1.919       .  S
C590        H593   1.084       .  S
C592        C594   1.403       .  A
C592        C598   1.410       .  A
C594        C595   1.398       .  A
C594        H599   1.083       .  S
C595        C596   1.407       .  A
C595       Br603   1.920       .  S
C596        C597   1.399       .  A
C597        C598   1.396       .  A
C597        H600   1.084       .  S
C598       Br604   1.917       .  S
C605        C606   1.415       .  A
C605        C610   1.407       .  A
C606        C607   1.399       .  A
C606       Br622   1.922       .  S
C607        C608   1.400       .  A
C607        H611   1.084       .  S
C608        C612   1.469       .  S
C608        C609   1.403       .  A
C609        C610   1.394       .  A
C609       Br621   1.917       .  S
C610        H613   1.083       .  S
C612        C614   1.400       .  A
C612        C618   1.407       .  A
C614        C615   1.394       .  A
C614        H619   1.084       .  S
C615        C616   1.408       .  A
C615       Br623   1.919       .  S
C616        C617   1.403       .  A
C617        C618   1.398       .  A
C617        H620   1.084       .  S
C618       Br624   1.918       .  S
C625        C626   1.410       .  A
C625        C630   1.402       .  A
C626        C627   1.405       .  A
C626       Br642   1.920       .  S
C627        C628   1.406       .  A
C627        H631   1.083       .  S
C628        C632   1.492       .  S
C628        C629   1.411       .  A
C629        C630   1.403       .  A
C629       Br641   1.918       .  S
C630        H633   1.083       .  S
C632        C634   1.401       .  A
C632        C638   1.405       .  A
C634        C635   1.403       .  A
C634        H639   1.084       .  S
C635        C636   1.424       .  A
C635       Br643   1.921       .  S
C636        C637   1.416       .  A
C637        C638   1.404       .  A
C637        H640   1.078       .  S
C638       Br644   1.918       .  S
C645        C646   1.413       .  A
C645        C650   1.406       .  A
C646        C647   1.404       .  A
C646       Br662   1.920       .  S
C647        C648   1.403       .  A
C647        H651   1.083       .  S
C648        C652   1.479       .  S
C648        C649   1.404       .  A
C649        C650   1.395       .  A
C649       Br661   1.917       .  S
C650        H653   1.083       .  S
C652        C654   1.400       .  A
C652        C658   1.405       .  A
C654        C655   1.402       .  A
C654        H659   1.084       .  S
C655        C656   1.417       .  A
C655       Br663   1.917       .  S
C656        C657   1.409       .  A
C657        C658   1.399       .  A
C657        H660   1.083       .  S
C658       Br664   1.919       .  S
C665        C666   1.417       .  A
C665        C670   1.410       .  A
C666        C667   1.406       .  A
C666       Br682   1.922       .  S
C667        C668   1.404       .  A
C667        H671   1.083       .  S
C668        C672   1.485       .  S
C668        C669   1.404       .  A
C669        C670   1.399       .  A
C669       Br681   1.919       .  S
C670        H673   1.083       .  S
C672        C674   1.400       .  A
C672        C678   1.408       .  A
C674        C675   1.399       .  A
C674        H679   1.084       .  S
C675        C676   1.415       .  A
C675       Br683   1.920       .  S
C676        C677   1.408       .  A
C677        C678   1.408       .  A
C677        H680   1.083       .  S
C678       Br684   1.917       .  S
C685        C686   1.411       .  A
C685        C690   1.402       .  A
C686        C687   1.403       .  A
C686       Br702   1.919       .  S
C687        C688   1.405       .  A
C687        H691   1.084       .  S
C688        C692   1.490       .  S
C688        C689   1.412       .  A
C689        C690   1.402       .  A
C689       Br701   1.919       .  S
C690        H693   1.084       .  S
C692        C694   1.404       .  A
C692        C698   1.411       .  A
C694        C695   1.401       .  A
C694        H699   1.083       .  S
C695        C696   1.407       .  A
C695       Br703   1.913       .  S
C696        C697   1.407       .  A
C697        C698   1.406       .  A
C697        H700   1.084       .  S
C698       Br704   1.920       .  S
O705        C716   1.295       .  A
O705       Eu741   2.481       .  S
O706        C717   1.301       .  A
O706       Eu740   2.514       .  S
O707        C718   1.290       .  A
O707       Eu713   2.451       .  S
O708        C719   1.291       .  A
O708       Eu713   2.456       .  S
O709        C719   1.283       .  A
O709       Eu743   2.427       .  S
O710        C718   1.288       .  A
O710       Eu742   2.447       .  S
O711        C717   1.289       .  A
O711       Eu713   2.454       .  S
O712        C716   1.291       .  A
O712       Eu713   2.461       .  S
Eu713       O723   2.353       .  S
Eu713       O715   2.344       .  S
Eu713       O714   2.350       .  S
Eu713       O721   2.356       .  S
O714       Eu743   2.350       .  S
O714       Eu740   2.363       .  S
O715       Eu741   2.354       .  S
O715       Eu742   2.342       .  S
C716       C1389   1.481       .  S
C717       C1209   1.507       .  S
C718       C1249   1.476       .  S
C719       C1269   1.487       .  S
H720        O721   0.966       .  S
O721       Eu742   2.357       .  S
O721       Eu740   2.375       .  S
H722        O723   0.965       .  S
O723       Eu741   2.360       .  S
O723       Eu743   2.349       .  S
O724        C747   1.300       .  A
O724       Eu740   2.512       .  S
O725        C748   1.295       .  A
O725       Eu741   2.484       .  S
O726        C749   1.288       .  A
O726       Eu742   2.442       .  S
O727        C750   1.290       .  A
O727       Eu743   2.447       .  S
O728        C751   1.292       .  A
O728       Eu743   2.470       .  S
O729        C752   1.289       .  A
O729       Eu742   2.443       .  S
O730        C753   1.288       .  A
O730       Eu744   2.450       .  S
O731        C754   1.292       .  A
O731       Eu744   2.467       .  S
O732        C753   1.290       .  A
O732       Eu742   2.451       .  S
O733        C754   1.288       .  A
O733       Eu743   2.445       .  S
O734        C749   1.299       .  A
O734       Eu740   2.501       .  S
O735        C752   1.294       .  A
O735       Eu741   2.476       .  S
O736        C751   1.293       .  A
O736       Eu741   2.475       .  S
O737        C750   1.299       .  A
O737       Eu740   2.507       .  S
O738        C747   1.291       .  A
O738       Eu744   2.451       .  S
O739        C748   1.291       .  A
O739       Eu744   2.451       .  S
Eu740       O758   2.373       .  S
Eu740       O746   2.370       .  S
Eu741       O745   2.365       .  S
Eu741       O756   2.358       .  S
Eu742       O756   2.344       .  S
Eu742       O746   2.350       .  S
Eu743       O745   2.346       .  S
Eu743       O758   2.353       .  S
Eu744       O745   2.356       .  S
Eu744       O756   2.352       .  S
Eu744       O758   2.350       .  S
Eu744       O746   2.358       .  S
C747       C1229   1.494       .  S
C748       C1369   1.494       .  S
C749       C1180   1.492       .  S
C750       C1189   1.498       .  S
C751       C1329   1.480       .  S
C752       C1349   1.482       .  S
C753       C1309   1.478       .  S
C754       C1289   1.482       .  S
H755        O756   0.966       .  S
H757        O758   0.966       .  S
N759        C764   1.352       .  A
N759        H791   1.039       .  S
N760       C2175   1.347       .  A
N760        C768   1.348       .  A
N761        C766   1.349       .  A
N761        H792   1.040       .  S
N762       C2177   1.350       .  A
N762        C770   1.349       .  A
C763        C771   1.388       .  A
C763        C779   1.412       .  A
C764        C780   1.411       .  A
C764        C772   1.387       .  A
C765        C773   1.387       .  A
C765        C782   1.410       .  A
C766        C781   1.409       .  A
C766        C774   1.387       .  A
C767       N2168   1.347       .  A
C767        C779   1.407       .  A
C767        C775   1.386       .  A
C768        C782   1.408       .  A
C768        C776   1.386       .  A
C769       N2170   1.350       .  A
C769        C777   1.386       .  A
C769        C780   1.410       .  A
C770        C778   1.387       .  A
C770        C781   1.411       .  A
C771        H783   1.082       .  S
C772        H784   1.082       .  S
C773        H785   1.082       .  S
C774        H786   1.083       .  S
C775       C2184   1.374   1_455  A
C775        H787   1.082       .  S
C776       C2183   1.374       .  A
C776        H788   1.082       .  S
C777       C2186   1.374   1_455  A
C777        H789   1.082       .  S
C778       C2185   1.374       .  A
C778        H790   1.082       .  S
C779       C1300   1.477       .  S
C780       C1280   1.482       .  S
C781       C1260   1.476       .  S
C782       C1320   1.480       .  S
O793        C804   1.298       .  A
O793       Eu829   2.501       .  S
O794        C805   1.296       .  A
O794       Eu828   2.491       .  S
O795        C806   1.291   1_554  A
O795      Eu2209   2.450   1_455  S
O796        C807   1.292       .  A
O796       Eu801   2.461       .  S
O797        C807   1.286       .  A
O797       Eu831   2.436       .  S
O798        C806   1.283       .  A
O798       Eu830   2.427   1_566  S
O799        C805   1.288       .  A
O799       Eu801   2.441       .  S
O800        C804   1.291       .  A
O800       Eu801   2.458   1_556  S
Eu801      O2203   2.450       .  S
Eu801       O811   2.350   1_554  S
Eu801      O2211   2.342   1_554  S
Eu801       O802   2.351       .  S
Eu801      O2217   2.350       .  S
O802       Eu831   2.345       .  S
O802       Eu828   2.363       .  S
O803      Eu2209   2.342   1_456  S
O803      Eu2237   2.347   1_455  S
O803       Eu830   2.344   1_566  S
C804       C1149   1.490       .  S
C805        C969   1.476       .  S
C806       C1009   1.482       .  S
C807       C1040   1.480       .  S
H808        O809   0.967       .  S
O809      Eu2209   2.350   1_455  S
O809       Eu830   2.352   1_565  S
O809      Eu2236   2.365   1_455  S
H810        O811   0.963       .  S
O811       Eu829   2.366       .  S
O811       Eu831   2.358   1_556  S
O812        C835   1.298       .  A
O813        C836   1.296       .  A
O814        C837   1.289       .  A
O814       Eu830   2.448   1_565  S
O815        C838   1.291       .  A
O815       Eu831   2.459       .  S
O816       Eu831   2.455   1_556  S
O817       Eu830   2.464   1_556  S
O818        C841   1.289       .  A
O818      Eu2240   2.451   1_455  S
O819        C842   1.287       .  A
O819       Eu832   2.433       .  S
O820        C841   1.287       .  A
O821        C842   1.287       .  A
O822        C837   1.297       .  A
O822      Eu2236   2.492   1_455  S
O823        C840   1.292       .  A
O823      Eu1533   2.468   1_455  S
O824        C839   1.292       .  A
O825        C838   1.296       .  A
O825       Eu828   2.490       .  S
O826        C835   1.290       .  A
O826       Eu832   2.451       .  S
O827        C836   1.290       .  A
O827       Eu832   2.454   1_556  S
Eu828      O2230   2.492       .  S
Eu828      O2217   2.365       .  S
Eu828      O1538   2.369   1_565  S
Eu829      O1527   2.468       .  S
Eu829      O2211   2.347       .  S
Eu829      O1548   2.371   1_565  S
Eu832      O2226   2.451       .  S
Eu832       O833   2.347   1_554  S
Eu832      O2252   2.350   1_554  S
Eu832       O846   2.355       .  S
Eu832      O2242   2.350       .  S
O834      Eu1532   2.369   1_455  S
O834      Eu2240   2.350   1_455  S
C835        C989   1.492       .  S
C836       C1140   1.489       .  S
C837        C929   1.487       .  S
C838        C949   1.490       .  S
C839       C1089   1.473       .  S
C840       C1109   1.479       .  S
C841       C1069   1.470       .  S
C842       C1060   1.473       .  S
H843        O844   0.967       .  S
O844      Eu1533   2.371   1_455  S
O844      Eu2240   2.350   1_456  S
H845        O846   0.965       .  S
N847        C852   1.351   1_554  A
N847        C851   1.350   1_554  A
N847        H879   1.038       .  S
N848        C855   1.348       .  A
N848        C856   1.348       .  A
N849        C854   1.350   1_554  A
N849        C853   1.352   1_554  A
N849        H880   1.038       .  S
N850        C857   1.350       .  A
N850        C858   1.349       .  A
C851        C859   1.388       .  A
C851        C867   1.411   1_556  A
C852        C868   1.410   1_556  A
C852        C860   1.387       .  A
C853        C861   1.387       .  A
C853        C870   1.412   1_556  A
C854        C869   1.411   1_556  A
C854        C862   1.387       .  A
C855        C867   1.407       .  A
C855        C863   1.386       .  A
C856        C870   1.408       .  A
C856        C864   1.386       .  A
C857        C865   1.386       .  A
C857        C868   1.410       .  A
C858        C866   1.387       .  A
C858        C869   1.410       .  A
C859        C860   1.372       .  A
C859        H871   1.082       .  S
C860        H872   1.082       .  S
C861        C862   1.375       .  A
C861        H873   1.083       .  S
C862        H874   1.082       .  S
C863        C864   1.372       .  A
C863        H875   1.082       .  S
C864        H876   1.082       .  S
C865        C866   1.373       .  A
C865        H877   1.082       .  S
C866        H878   1.082       .  S
C867       C1049   1.473       .  S
C868       C1029   1.478       .  S
C869       C1020   1.476       .  S
C870       C1080   1.480       .  S
C881        C882   1.547       .  S
C881       C2295   1.541       .  S
C881        C885   1.535       .  S
C881       C1340   1.548       .  S
C882        H889   1.083       .  S
C882       C2291   1.364       .  D
C883        C884   1.539       .  S
C883       C2290   1.364       .  D
C883       C1000   1.485       .  S
C884        C888   1.544       .  S
C884        C886   1.546       .  S
C884        H890   1.109       .  S
C885        H891   1.086       .  S
C885       C2294   1.368       .  D
C886       C2293   1.368       .  D
C886        C980   1.494       .  S
C887       C2289   1.541       .  S
C887        H892   1.085       .  S
C887        C888   1.372       .  D
C888       C1360   1.496       .  S
C893        C894   1.549       .  S
C893        C899   1.542       .  S
C893        C940   1.547       .  S
C894        H901   1.080       .  S
C894        C895   1.366       .  D
C895        C896   1.543       .  S
C895       C1380   1.495       .  S
C896        C900   1.538       .  S
C896        H902   1.111       .  S
C897        H903   1.086       .  S
C897        C898   1.364       .  D
C898       C1400   1.489       .  S
C899        H904   1.086       .  S
C899        C900   1.368       .  D
C900        C960   1.478       .  S
C905        C906   1.536       .  S
C905       C2319   1.541       .  S
C905        C909   1.546       .  S
C905       C1200   1.549       .  S
C906        H913   1.086       .  S
C906       C2315   1.368       .  D
C907        C908   1.550       .  S
C907       C2314   1.368       .  D
C907       C1160   1.500       .  S
C908        C912   1.540       .  S
C908        C910   1.545       .  S
C908        H914   1.110       .  S
C909        H915   1.082       .  S
C909       C2318   1.369       .  D
C910       C2317   1.369       .  D
C910       C1129   1.489       .  S
C911       C2313   1.541       .  S
C911        H916   1.086       .  S
C911        C912   1.365       .  D
C912       C1169   1.483       .  S
C917        C923   1.552   1_565  S
C917        C921   1.535       .  S
C917       C1120   1.547       .  S
C918        H925   1.086       .  S
C918        C919   1.364       .  D
C919       C1220   1.493       .  S
C920        C924   1.544       .  S
C920        C922   1.555   1_545  S
C920        H926   1.107       .  S
C921        H927   1.086       .  S
C921        C922   1.369       .  D
C922       C1240   1.504       .  S
C923        H928   1.080       .  S
C923        C924   1.369       .  D
C924       C1100   1.498       .  S
C929        C930   1.415       .  A
C930        C931   1.398       .  A
C930       Br946   1.915       .  S
C931        C932   1.398   1_565  A
C931        H935   1.084       .  S
C932        C936   1.483       .  S
C933        C934   1.405       .  A
C933       Br945   1.916       .  S
C934        H937   1.079       .  S
C936        C942   1.400   1_545  A
C938        C939   1.406       .  A
C938        H943   1.084       .  S
C939       Br947   1.924       .  S
C940        C941   1.416       .  A
C941        C942   1.398       .  A
C941        H944   1.074       .  S
C942       Br948   1.919       .  S
C949        C954   1.409       .  A
C950        C951   1.397       .  A
C950       Br966   1.920       .  S
C951        H955   1.084       .  S
C952        C956   1.485       .  S
C952        C953   1.410       .  A
C953        C954   1.409       .  A
C953       Br965   1.919       .  S
C954        H957   1.083       .  S
C956        C958   1.405       .  A
C958        C959   1.401       .  A
C958        H963   1.083       .  S
C959        C960   1.408       .  A
C959       Br967   1.918       .  S
C961        C962   1.400       .  A
C961        H964   1.084       .  S
C962       Br968   1.918       .  S
C969       C2378   1.410       .  A
C969        C974   1.402       .  A
C970       C2377   1.410   1_455  A
C970        C971   1.400       .  A
C970       Br986   1.917       .  S
C971       C2380   1.402   1_455  A
C971        H975   1.084       .  S
C972        C976   1.484       .  S
C972       C2379   1.402       .  A
C972        C973   1.410       .  A
C973        C974   1.404       .  A
C973       Br985   1.916       .  S
C974        H977   1.083       .  S
C976       C2386   1.397       .  A
C976        C982   1.410       .  A
C978       C2384   1.397   1_455  A
C978        C979   1.397       .  A
C978        H983   1.084       .  S
C979       C2388   1.415       .  A
C979       Br987   1.915       .  S
C980       C2387   1.415       .  A
C980        C981   1.406       .  A
C981        C982   1.407       .  A
C981        H984   1.083       .  S
C982       Br988   1.917       .  S
C989        C990   1.413       .  A
C989       C2402   1.411       .  A
C990        C991   1.403       .  A
C990      Br1006   1.914       .  S
C991        C992   1.403       .  A
C991        H995   1.084       .  S
C992        C996   1.486       .  S
C992       C2401   1.406       .  A
C993       C2400   1.406       .  A
C993        C994   1.403       .  A
C993      Br1005   1.918       .  S
C994       C2397   1.411       .  A
C994        H997   1.084       .  S
C996       C2406   1.405       .  A
C996       C1002   1.408       .  A
C998       C2404   1.405   1_455  A
C998        C999   1.402       .  A
C998       H1003   1.083       .  S
C999       C2408   1.407   1_455  A
C999      Br1007   1.917       .  S
C1000      C2407   1.407       .  A
C1000      C1001   1.405       .  A
C1001      C1002   1.405       .  A
C1001      H1004   1.084       .  S
C1002     Br1008   1.918       .  S
C1009      C1010   1.420       .  A
C1009      C1014   1.407   1_556  A
C1010      C1011   1.396       .  A
C1010     Br1026   1.926       .  S
C1011      C1012   1.400       .  A
C1011      H1015   1.084       .  S
C1012      C1016   1.472       .  S
C1012      C1013   1.404   1_556  A
C1013      C1014   1.391       .  A
C1013     Br1025   1.919       .  S
C1014      H1017   1.083       .  S
C1016      C1018   1.403   1_556  A
C1016      C1022   1.409       .  A
C1018      C1019   1.396       .  A
C1018      H1023   1.084       .  S
C1019      C1020   1.407       .  A
C1019     Br1027   1.918       .  S
C1020      C1021   1.399   1_554  A
C1021      C1022   1.395       .  A
C1021      H1024   1.083       .  S
C1022     Br1028   1.920       .  S
C1029      C1030   1.405   1_554  A
C1029      C1034   1.401       .  A
C1030      C1031   1.398       .  A
C1030     Br1046   1.918       .  S
C1031      C1032   1.403   1_556  A
C1031      H1035   1.083       .  S
C1032      C1036   1.473       .  S
C1032      C1033   1.409       .  A
C1033      C1034   1.396       .  A
C1033     Br1045   1.919       .  S
C1034      H1037   1.083       .  S
C1036      C1038   1.399       .  A
C1036      C1042   1.406   1_554  A
C1038      C1039   1.395       .  A
C1038      H1043   1.084       .  S
C1039      C1040   1.417       .  A
C1039     Br1047   1.923       .  S
C1040      C1041   1.407   1_554  A
C1041      C1042   1.397       .  A
C1041      H1044   1.083       .  S
C1042     Br1048   1.918       .  S
C1049      C1050   1.405       .  A
C1049      C1054   1.398   1_554  A
C1050      C1051   1.396       .  A
C1050     Br1066   1.918       .  S
C1051      C1052   1.404       .  A
C1051      H1055   1.083       .  S
C1052      C1056   1.473       .  S
C1052      C1053   1.411   1_554  A
C1053      C1054   1.392       .  A
C1053     Br1065   1.921       .  S
C1054      H1057   1.084       .  S
C1056      C1058   1.401   1_554  A
C1056      C1062   1.408       .  A
C1058      C1059   1.393       .  A
C1058      H1063   1.084       .  S
C1059      C1060   1.412   1_556  A
C1059     Br1067   1.923       .  S
C1060      C1061   1.406       .  A
C1061      C1062   1.394       .  A
C1061      H1064   1.084       .  S
C1062     Br1068   1.920       .  S
C1069      C1070   1.412       .  A
C1069      C1074   1.403   1_554  A
C1070      C1071   1.397       .  A
C1070     Br1086   1.922       .  S
C1071      C1072   1.400       .  A
C1071      H1075   1.084       .  S
C1072      C1076   1.469       .  S
C1072      C1073   1.406   1_554  A
C1073      C1074   1.396       .  A
C1073     Br1085   1.919       .  S
C1074      H1077   1.084       .  S
C1076      C1078   1.401   1_554  A
C1076      C1082   1.406       .  A
C1078      C1079   1.396       .  A
C1078      H1083   1.084       .  S
C1079      C1080   1.408   1_556  A
C1079     Br1087   1.918       .  S
C1080      C1081   1.402       .  A
C1081      C1082   1.395       .  A
C1081      H1084   1.084       .  S
C1082     Br1088   1.917       .  S
C1089      C1090   1.410       .  A
C1090      C1091   1.401       .  A
C1090     Br1106   1.919       .  S
C1091      H1095   1.083       .  S
C1092      C1096   1.480       .  S
C1092      C1093   1.409   1_545  A
C1093      C1094   1.398       .  A
C1093     Br1105   1.920       .  S
C1094      H1097   1.084       .  S
C1096      C1098   1.399   1_545  A
C1098      C1099   1.399       .  A
C1098      H1103   1.084       .  S
C1099      C1100   1.416   1_565  A
C1099     Br1107   1.914       .  S
C1101      C1102   1.402       .  A
C1101      H1104   1.083       .  S
C1102     Br1108   1.921       .  S
C1109      C1114   1.402       .  A
C1110      C1111   1.405       .  A
C1110     Br1126   1.918       .  S
C1111      C1112   1.405   1_565  A
C1111      H1115   1.083       .  S
C1112      C1116   1.487       .  S
C1113      C1114   1.398       .  A
C1113     Br1125   1.920       .  S
C1114      H1117   1.084       .  S
C1116      C1122   1.405   1_545  A
C1118      C1119   1.406       .  A
C1118      H1123   1.084       .  S
C1119     Br1127   1.924       .  S
C1120      C1121   1.413       .  A
C1121      C1122   1.398       .  A
C1121      H1124   1.075       .  S
C1122     Br1128   1.922       .  S
C1129      C2538   1.411       .  A
C1129      C1134   1.406       .  A
C1130      C2537   1.411       .  A
C1130      C1131   1.399       .  A
C1130     Br1146   1.919       .  S
C1131      C2540   1.402   1_455  A
C1131      H1135   1.084       .  S
C1132      C1136   1.483       .  S
C1132      C2539   1.402       .  A
C1132      C1133   1.408       .  A
C1133      C1134   1.406       .  A
C1133     Br1145   1.918       .  S
C1134      H1137   1.081       .  S
C1136      C1138   1.400       .  A
C1136      C1142   1.408       .  A
C1138      C1139   1.401       .  A
C1138      H1143   1.084       .  S
C1139      C1140   1.417       .  A
C1139     Br1147   1.921       .  S
C1140      C1141   1.407       .  A
C1141      C1142   1.404       .  A
C1141      H1144   1.083       .  S
C1142     Br1148   1.917       .  S
C1149      C2558   1.414       .  A
C1149      C1154   1.406       .  A
C1150      C2557   1.414   1_455  A
C1150      C1151   1.402       .  A
C1150     Br1166   1.914       .  S
C1151      C2560   1.401   1_455  A
C1151      H1155   1.084       .  S
C1152      C1156   1.491       .  S
C1152      C2559   1.401       .  A
C1152      C1153   1.412       .  A
C1153      C1154   1.409       .  A
C1153     Br1165   1.917       .  S
C1154      H1157   1.083       .  S
C1156      C1158   1.406       .  A
C1156      C2570   1.407       .  A
C1158      C1159   1.408       .  A
C1158      H1163   1.083       .  S
C1159      C1160   1.414       .  A
C1159     Br1167   1.917       .  S
C1160      C2569   1.409       .  A
C1161      C2568   1.409       .  A
C1161      C1162   1.401       .  A
C1161      H1164   1.083       .  S
C1162      C2564   1.407   1_455  A
C1162     Br1168   1.918       .  S
C1169      C1170   1.409       .  A
C1169      C1174   1.401       .  A
C1170      C1171   1.405       .  A
C1170     Br1186   1.917       .  S
C1171      C1172   1.406       .  A
C1171      H1175   1.083       .  S
C1172      C1176   1.491       .  S
C1172      C1173   1.412       .  A
C1173      C1174   1.401       .  A
C1173     Br1185   1.919       .  S
C1174      H1177   1.082       .  S
C1176      C1178   1.402       .  A
C1176      C1182   1.411       .  A
C1178      C1179   1.399       .  A
C1178      H1183   1.084       .  S
C1179      C1180   1.418       .  A
C1179     Br1187   1.924       .  S
C1180      C1181   1.406       .  A
C1181      C1182   1.407       .  A
C1181      H1184   1.080       .  S
C1182     Br1188   1.917       .  S
C1189      C1190   1.416       .  A
C1189      C1194   1.411       .  A
C1190      C1191   1.409       .  A
C1190     Br1206   1.919       .  S
C1191      C1192   1.406       .  A
C1191      H1195   1.083       .  S
C1192      C1196   1.492       .  S
C1192      C1193   1.406       .  A
C1193      C1194   1.401       .  A
C1193     Br1205   1.919       .  S
C1194      H1197   1.083       .  S
C1196      C1198   1.401       .  A
C1196      C1202   1.404       .  A
C1198      C1199   1.407       .  A
C1198      H1203   1.083       .  S
C1199      C1200   1.425       .  A
C1199     Br1207   1.925       .  S
C1200      C1201   1.416       .  A
C1201      C1202   1.404       .  A
C1201      H1204   1.076       .  S
C1202     Br1208   1.918       .  S
C1209      C1210   1.425       .  A
C1209      C1214   1.411       .  A
C1210      C1211   1.402       .  A
C1210     Br1226   1.919       .  S
C1211      C1212   1.397       .  A
C1211      H1215   1.084       .  S
C1212      C1216   1.490       .  S
C1212      C1213   1.408       .  A
C1213      C1214   1.409       .  A
C1213     Br1225   1.917       .  S
C1214      H1217   1.083       .  S
C1216      C1218   1.403       .  A
C1216      C1222   1.409       .  A
C1218      C1219   1.405       .  A
C1218      H1223   1.083       .  S
C1219      C1220   1.413       .  A
C1219     Br1227   1.914       .  S
C1220      C1221   1.405       .  A
C1221      C1222   1.402       .  A
C1221      H1224   1.084       .  S
C1222     Br1228   1.916       .  S
C1229      C1230   1.413       .  A
C1229      C1234   1.406       .  A
C1230      C1231   1.409       .  A
C1230     Br1246   1.913       .  S
C1231      C1232   1.408       .  A
C1231      H1235   1.083       .  S
C1232      C1236   1.499       .  S
C1232      C1233   1.411       .  A
C1233      C1234   1.401       .  A
C1233     Br1245   1.920       .  S
C1234      H1237   1.084       .  S
C1236      C1238   1.408       .  A
C1236      C1242   1.410       .  A
C1238      C1239   1.408       .  A
C1238      H1243   1.083       .  S
C1239      C1240   1.413       .  A
C1239     Br1247   1.916       .  S
C1240      C1241   1.411       .  A
C1241      C1242   1.404       .  A
C1241      H1244   1.083       .  S
C1242     Br1248   1.920       .  S
C1249      C1250   1.415       .  A
C1249      C1254   1.404       .  A
C1250      C1251   1.398       .  A
C1250     Br1266   1.919       .  S
C1251      C1252   1.399       .  A
C1251      H1255   1.084       .  S
C1252      C1256   1.466       .  S
C1252      C1253   1.402       .  A
C1253      C1254   1.393       .  A
C1253     Br1265   1.919       .  S
C1254      H1257   1.079       .  S
C1256      C1258   1.401       .  A
C1256      C1262   1.405       .  A
C1258      C1259   1.394       .  A
C1258      H1263   1.084       .  S
C1259      C1260   1.406       .  A
C1259     Br1267   1.919       .  S
C1260      C1261   1.403       .  A
C1261      C1262   1.395       .  A
C1261      H1264   1.084       .  S
C1262     Br1268   1.919       .  S
C1269      C1270   1.423       .  A
C1269      C1274   1.409       .  A
C1270      C1271   1.394       .  A
C1270     Br1286   1.928       .  S
C1271      C1272   1.398       .  A
C1271      H1275   1.084       .  S
C1272      C1276   1.477       .  S
C1272      C1273   1.407       .  A
C1273      C1274   1.397       .  A
C1273     Br1285   1.918       .  S
C1274      H1277   1.083       .  S
C1276      C1278   1.403       .  A
C1276      C1282   1.410       .  A
C1278      C1279   1.399       .  A
C1278      H1283   1.083       .  S
C1279      C1280   1.408       .  A
C1279     Br1287   1.919       .  S
C1280      C1281   1.401       .  A
C1281      C1282   1.396       .  A
C1281      H1284   1.083       .  S
C1282     Br1288   1.920       .  S
C1289      C1290   1.416       .  A
C1289      C1294   1.407       .  A
C1290      C1291   1.396       .  A
C1290     Br1306   1.921       .  S
C1291      C1292   1.398       .  A
C1291      H1295   1.084       .  S
C1292      C1296   1.475       .  S
C1292      C1293   1.408       .  A
C1293      C1294   1.401       .  A
C1293     Br1305   1.919       .  S
C1294      H1297   1.084       .  S
C1296      C1298   1.403       .  A
C1296      C1302   1.410       .  A
C1298      C1299   1.398       .  A
C1298      H1303   1.083       .  S
C1299      C1300   1.407       .  A
C1299     Br1307   1.920       .  S
C1300      C1301   1.399       .  A
C1301      C1302   1.396       .  A
C1301      H1304   1.084       .  S
C1302     Br1308   1.917       .  S
C1309      C1310   1.415       .  A
C1309      C1314   1.407       .  A
C1310      C1311   1.399       .  A
C1310     Br1326   1.922       .  S
C1311      C1312   1.400       .  A
C1311      H1315   1.084       .  S
C1312      C1316   1.469       .  S
C1312      C1313   1.403       .  A
C1313      C1314   1.394       .  A
C1313     Br1325   1.917       .  S
C1314      H1317   1.083       .  S
C1316      C1318   1.400       .  A
C1316      C1322   1.407       .  A
C1318      C1319   1.394       .  A
C1318      H1323   1.084       .  S
C1319      C1320   1.408       .  A
C1319     Br1327   1.919       .  S
C1320      C1321   1.403       .  A
C1321      C1322   1.398       .  A
C1321      H1324   1.084       .  S
C1322     Br1328   1.918       .  S
C1329      C1330   1.410       .  A
C1329      C1334   1.402       .  A
C1330      C1331   1.405       .  A
C1330     Br1346   1.920       .  S
C1331      C1332   1.406       .  A
C1331      H1335   1.083       .  S
C1332      C1336   1.491       .  S
C1332      C1333   1.411       .  A
C1333      C1334   1.403       .  A
C1333     Br1345   1.918       .  S
C1334      H1337   1.083       .  S
C1336      C1338   1.401       .  A
C1336      C1342   1.405       .  A
C1338      C1339   1.403       .  A
C1338      H1343   1.084       .  S
C1339      C1340   1.424       .  A
C1339     Br1347   1.921       .  S
C1340      C1341   1.416       .  A
C1341      C1342   1.404       .  A
C1341      H1344   1.078       .  S
C1342     Br1348   1.918       .  S
C1349      C1350   1.413       .  A
C1349      C1354   1.406       .  A
C1350      C1351   1.404       .  A
C1350     Br1366   1.920       .  S
C1351      C1352   1.403       .  A
C1351      H1355   1.083       .  S
C1352      C1356   1.479       .  S
C1352      C1353   1.404       .  A
C1353      C1354   1.395       .  A
C1353     Br1365   1.917       .  S
C1354      H1357   1.083       .  S
C1356      C1358   1.400       .  A
C1356      C1362   1.405       .  A
C1358      C1359   1.402       .  A
C1358      H1363   1.084       .  S
C1359      C1360   1.417       .  A
C1359     Br1367   1.917       .  S
C1360      C1361   1.409       .  A
C1361      C1362   1.399       .  A
C1361      H1364   1.083       .  S
C1362     Br1368   1.919       .  S
C1369      C1370   1.417       .  A
C1369      C1374   1.410       .  A
C1370      C1371   1.406       .  A
C1370     Br1386   1.922       .  S
C1371      C1372   1.404       .  A
C1371      H1375   1.083       .  S
C1372      C1376   1.485       .  S
C1372      C1373   1.404       .  A
C1373      C1374   1.399       .  A
C1373     Br1385   1.919       .  S
C1374      H1377   1.083       .  S
C1376      C1378   1.400       .  A
C1376      C1382   1.408       .  A
C1378      C1379   1.399       .  A
C1378      H1383   1.084       .  S
C1379      C1380   1.415       .  A
C1379     Br1387   1.920       .  S
C1380      C1381   1.408       .  A
C1381      C1382   1.408       .  A
C1381      H1384   1.083       .  S
C1382     Br1388   1.917       .  S
C1389      C1390   1.411       .  A
C1389      C1394   1.402       .  A
C1390      C1391   1.403       .  A
C1390     Br1406   1.919       .  S
C1391      C1392   1.405       .  A
C1391      H1395   1.084       .  S
C1392      C1396   1.490       .  S
C1392      C1393   1.412       .  A
C1393      C1394   1.402       .  A
C1393     Br1405   1.919       .  S
C1394      H1397   1.084       .  S
C1396      C1398   1.404       .  A
C1396      C1402   1.411       .  A
C1398      C1399   1.401       .  A
C1398      H1403   1.083       .  S
C1399      C1400   1.407       .  A
C1399     Br1407   1.913       .  S
C1400      C1401   1.407       .  A
C1401      C1402   1.406       .  A
C1401      H1404   1.084       .  S
C1402     Br1408   1.920       .  S
O1409      C1420   1.295       .  A
O1409     Eu1445   2.482       .  S
O1410      C1421   1.301       .  A
O1410     Eu1444   2.514       .  S
O1411      C1422   1.290       .  A
O1411     Eu1417   2.451       .  S
O1412      C1423   1.291       .  A
O1412     Eu1417   2.456       .  S
O1413      C1423   1.283       .  A
O1413     Eu1447   2.427       .  S
O1414      C1422   1.288       .  A
O1414     Eu1446   2.447       .  S
O1415      C1421   1.289       .  A
O1415     Eu1417   2.454       .  S
O1416      C1420   1.291       .  A
O1416     Eu1417   2.461       .  S
Eu1417     O1427   2.353       .  S
Eu1417     O1419   2.344       .  S
Eu1417     O1418   2.351       .  S
Eu1417     O1425   2.356       .  S
O1418     Eu1447   2.350       .  S
O1418     Eu1444   2.363       .  S
O1419     Eu1445   2.354       .  S
O1419     Eu1446   2.342       .  S
C1420      C2093   1.481       .  S
C1421      C1913   1.507       .  S
C1422      C1953   1.476       .  S
C1423      C1973   1.487       .  S
H1424      O1425   0.966       .  S
O1425     Eu1446   2.357       .  S
O1425     Eu1444   2.375       .  S
H1426      O1427   0.965       .  S
O1427     Eu1445   2.360       .  S
O1427     Eu1447   2.349       .  S
O1428      C1451   1.300       .  A
O1428     Eu1444   2.512       .  S
O1429      C1452   1.295       .  A
O1429     Eu1445   2.484       .  S
O1430      C1453   1.288       .  A
O1430     Eu1446   2.442       .  S
O1431      C1454   1.290       .  A
O1431     Eu1447   2.447       .  S
O1432      C1455   1.292       .  A
O1432     Eu1447   2.470       .  S
O1433      C1456   1.289       .  A
O1433     Eu1446   2.443       .  S
O1434      C1457   1.289       .  A
O1434     Eu1448   2.450       .  S
O1435      C1458   1.292       .  A
O1435     Eu1448   2.467       .  S
O1436      C1457   1.290       .  A
O1436     Eu1446   2.451       .  S
O1437      C1458   1.288       .  A
O1437     Eu1447   2.445       .  S
O1438      C1453   1.299       .  A
O1438     Eu1444   2.501       .  S
O1439      C1456   1.294       .  A
O1439     Eu1445   2.476       .  S
O1440      C1455   1.293       .  A
O1440     Eu1445   2.475       .  S
O1441      C1454   1.299       .  A
O1441     Eu1444   2.507       .  S
O1442      C1451   1.291       .  A
O1442     Eu1448   2.451       .  S
O1443      C1452   1.291       .  A
O1443     Eu1448   2.451       .  S
Eu1444     O1462   2.373       .  S
Eu1444     O1450   2.370       .  S
Eu1445     O1449   2.365       .  S
Eu1445     O1460   2.358       .  S
Eu1446     O1460   2.344       .  S
Eu1446     O1450   2.350       .  S
Eu1447     O1449   2.346       .  S
Eu1447     O1462   2.353       .  S
Eu1448     O1449   2.356       .  S
Eu1448     O1460   2.352       .  S
Eu1448     O1462   2.350       .  S
Eu1448     O1450   2.358       .  S
C1451      C1933   1.494       .  S
C1452      C2073   1.494       .  S
C1453      C1884   1.492       .  S
C1454      C1893   1.499       .  S
C1455      C2033   1.480       .  S
C1456      C2053   1.482       .  S
C1457      C2013   1.478       .  S
C1458      C1993   1.482       .  S
H1459      O1460   0.966       .  S
H1461      O1462   0.966       .  S
N1463      C1468   1.352   1_565  A
N1463      C2171   1.351       .  A
N1463      H1495   1.039       .  S
N1464      C1472   1.348   1_455  A
N1465      C1470   1.349   1_565  A
N1465      C2173   1.351       .  A
N1465      H1496   1.040       .  S
N1466      C1474   1.349   1_455  A
C1467      N2167   1.351       .  A
C1467      C1475   1.388       .  A
C1467      C1483   1.412       .  A
C1468      C1484   1.411       .  A
C1468      C1476   1.387       .  A
C1469      N2169   1.351       .  A
C1469      C1477   1.387       .  A
C1469      C1486   1.410       .  A
C1470      C1485   1.409       .  A
C1470      C1478   1.387       .  A
C1471      C1483   1.407       .  A
C1471      C1479   1.386       .  A
C1472      C1486   1.408       .  A
C1472      C1480   1.386       .  A
C1473      C1481   1.386       .  A
C1473      C1484   1.410       .  A
C1474      C1482   1.387       .  A
C1474      C1485   1.411       .  A
C1475      C2180   1.373       .  A
C1475      H1487   1.082       .  S
C1476      C2179   1.373   1_545  A
C1476      H1488   1.082       .  S
C1477      C2182   1.375       .  A
C1477      H1489   1.082       .  S
C1478      C2181   1.375   1_545  A
C1478      H1490   1.083       .  S
C1479      H1491   1.082       .  S
C1480      H1492   1.082       .  S
C1481      H1493   1.082       .  S
C1482      H1494   1.082       .  S
C1483      C2004   1.477       .  S
C1484      C1984   1.482       .  S
C1485      C1964   1.476       .  S
C1486      C2024   1.480       .  S
O1497      C1508   1.298       .  A
O1497     Eu1533   2.501       .  S
O1498      C1509   1.296       .  A
O1498     Eu1532   2.491       .  S
O1499      C1510   1.291   1_554  A
O1500      C1511   1.292       .  A
O1500     Eu1505   2.461       .  S
O1501      C1511   1.286       .  A
O1501     Eu1535   2.436       .  S
O1502      C1510   1.283       .  A
O1502     Eu1534   2.427   1_556  S
O1503      C1509   1.288       .  A
O1503     Eu1505   2.441       .  S
O1504      C1508   1.291       .  A
O1504     Eu1505   2.458   1_556  S
Eu1505     O1515   2.350   1_554  S
Eu1505     O1506   2.352       .  S
O1506     Eu1535   2.345       .  S
O1506     Eu1532   2.363       .  S
O1507     Eu1534   2.344   1_556  S
C1508      C1853   1.490       .  S
C1509      C1673   1.476       .  S
C1510      C1713   1.482       .  S
C1511      C1744   1.480       .  S
H1512      O1513   0.967       .  S
O1513     Eu1534   2.352       .  S
H1514      O1515   0.963       .  S
O1515     Eu1533   2.366       .  S
O1515     Eu1535   2.358   1_556  S
O1516      C1539   1.298       .  A
O1516     Eu2236   2.498   1_545  S
O1517      C1540   1.296       .  A
O1517     Eu2237   2.486   1_545  S
O1518      C1541   1.289       .  A
O1518     Eu1534   2.448       .  S
O1519      C1542   1.291       .  A
O1519     Eu1535   2.460       .  S
O1520      C2247   1.291       .  A
O1520     Eu1535   2.455   1_556  S
O1521      C2248   1.292       .  A
O1521     Eu1534   2.464   1_556  S
O1522      C1545   1.289       .  A
O1523      C1546   1.287       .  A
O1523     Eu1536   2.434       .  S
O1524      C1545   1.287       .  A
O1524     Eu2238   2.440       .  S
O1525      C1546   1.287       .  A
O1525     Eu2239   2.444   1_545  S
O1526      C1541   1.297       .  A
O1527      C1544   1.292   1_565  A
O1528      C1543   1.292       .  A
O1528     Eu2237   2.464       .  S
O1529      C1542   1.296       .  A
O1529     Eu1532   2.490       .  S
O1530      C1539   1.290       .  A
O1530     Eu1536   2.451       .  S
O1531      C1540   1.290       .  A
O1531     Eu1536   2.454   1_556  S
Eu1532     O2220   2.498       .  S
Eu1532     O2254   2.363       .  S
Eu1533     O2221   2.486       .  S
Eu1533     O2232   2.464       .  S
Eu1533     O2241   2.358       .  S
Eu1534     O2228   2.440       .  S
Eu1534     O2252   2.345   1_554  S
Eu1534     O2242   2.350       .  S
Eu1535     O2229   2.444       .  S
Eu1535     O2241   2.345   1_554  S
Eu1535     O2254   2.349       .  S
Eu1536     O1537   2.347   1_554  S
Eu1536     O1550   2.355       .  S
O1537     Eu2237   2.358   1_545  S
O1537     Eu2239   2.345   1_546  S
O1538     Eu2238   2.350       .  S
C1539      C1693   1.492       .  S
C1540      C1844   1.489       .  S
C1541      C1633   1.487       .  S
C1542      C1653   1.490       .  S
C1543      O2224   1.291       .  A
C1543      C1793   1.473       .  S
C1544      O2225   1.292       .  A
C1544      C1813   1.479       .  S
C1545      C1773   1.470       .  S
C1546      C1764   1.473       .  S
H1547      O1548   0.967       .  S
O1548     Eu2238   2.345   1_556  S
H1549      O1550   0.965       .  S
O1550     Eu2236   2.363   1_545  S
O1550     Eu2239   2.349   1_545  S
N1551      C1556   1.351   1_554  A
N1551      C1555   1.350   1_554  A
N1551      H1583   1.038       .  S
N1552      C1559   1.348       .  A
N1552      C1560   1.348       .  A
N1553      C1558   1.350   1_554  A
N1553      C1557   1.352   1_554  A
N1553      H1584   1.038       .  S
N1554      C1561   1.350       .  A
N1554      C1562   1.349       .  A
C1555      C1563   1.388       .  A
C1555      C1571   1.411   1_556  A
C1556      C1572   1.410   1_556  A
C1556      C1564   1.387       .  A
C1557      C1565   1.387       .  A
C1557      C1574   1.412   1_556  A
C1558      C1573   1.411   1_556  A
C1558      C1566   1.387       .  A
C1559      C1571   1.407       .  A
C1559      C1567   1.386       .  A
C1560      C1574   1.408       .  A
C1560      C1568   1.386       .  A
C1561      C1569   1.386       .  A
C1561      C1572   1.410       .  A
C1562      C1570   1.387       .  A
C1562      C1573   1.410       .  A
C1563      C1564   1.372       .  A
C1563      H1575   1.082       .  S
C1564      H1576   1.082       .  S
C1565      C1566   1.375       .  A
C1565      H1577   1.083       .  S
C1566      H1578   1.082       .  S
C1567      C1568   1.372       .  A
C1567      H1579   1.082       .  S
C1568      H1580   1.082       .  S
C1569      C1570   1.373       .  A
C1569      H1581   1.082       .  S
C1570      H1582   1.082       .  S
C1571      C1753   1.473       .  S
C1572      C1733   1.478       .  S
C1573      C1724   1.476       .  S
C1574      C1784   1.480       .  S
C1585      C1586   1.547       .  S
C1585      C1589   1.535       .  S
C1585      C2044   1.549       .  S
C1586      H1593   1.083       .  S
C1587      C1588   1.539   1_455  S
C1587      C1704   1.485   1_455  S
C1588      C1592   1.544       .  S
C1588      C1590   1.546   1_655  S
C1588      H1594   1.109       .  S
C1589      H1595   1.086       .  S
C1590      C1684   1.494       .  S
C1591      H1596   1.085       .  S
C1591      C1592   1.372   1_455  D
C1592      C2064   1.496       .  S
C1597      C1598   1.549       .  S
C1597      C1603   1.542       .  S
C1597      C2305   1.538       .  S
C1597      C1644   1.548       .  S
C1598      H1605   1.080       .  S
C1598      C1599   1.366       .  D
C1599      C1600   1.543       .  S
C1599      C2084   1.495       .  S
C1600      C1604   1.538       .  S
C1600      C2306   1.543       .  S
C1600      H1606   1.111       .  S
C1601      C2301   1.538   1_545  S
C1601      H1607   1.086       .  S
C1601      C1602   1.364       .  D
C1602      C2304   1.543   1_545  S
C1602      C2104   1.489       .  S
C1603      H1608   1.086       .  S
C1603      C1604   1.368       .  D
C1604      C1664   1.478       .  S
C1609      C1610   1.536       .  S
C1609      C1613   1.546       .  S
C1609      C1904   1.549       .  S
C1610      H1617   1.086       .  S
C1611      C1612   1.550   1_455  S
C1611      C1864   1.500       .  S
C1612      C1616   1.540       .  S
C1612      C1614   1.545   1_655  S
C1612      H1618   1.110       .  S
C1613      H1619   1.082       .  S
C1614      C1833   1.489       .  S
C1615      H1620   1.086       .  S
C1615      C1616   1.364   1_455  D
C1616      C1873   1.483       .  S
C1621      C2326   1.535       .  S
C1621      C1627   1.552       .  S
C1621      C1625   1.535       .  S
C1621      C1824   1.547       .  S
C1622      C2325   1.535   1_545  S
C1622      H1629   1.086       .  S
C1622      C1623   1.364       .  D
C1623      C2328   1.549       .  S
C1623      C1924   1.493       .  S
C1624      C2327   1.549       .  S
C1624      C1628   1.544       .  S
C1624      C1626   1.555       .  S
C1624      H1630   1.107       .  S
C1625      H1631   1.086       .  S
C1625      C1626   1.369       .  D
C1626      C1944   1.504       .  S
C1627      H1632   1.080       .  S
C1627      C1628   1.369       .  D
C1628      C1804   1.498       .  S
C1633      C1634   1.415       .  A
C1633      C2342   1.404       .  A
C1634      C1635   1.398       .  A
C1634     Br1650   1.915       .  S
C1635      C1636   1.398       .  A
C1635      H1639   1.084       .  S
C1636      C1640   1.483       .  S
C1636      C2341   1.409       .  A
C1637      C2340   1.409       .  A
C1637      C1638   1.405       .  A
C1637     Br1649   1.916       .  S
C1638      C2337   1.404   1_545  A
C1638      H1641   1.079       .  S
C1640      C2346   1.401       .  A
C1640      C1646   1.400       .  A
C1642      C2344   1.401       .  A
C1642      C1643   1.406       .  A
C1642      H1647   1.084       .  S
C1643      C2348   1.425   1_545  A
C1643     Br1651   1.924       .  S
C1644      C2347   1.425       .  A
C1644      C1645   1.416       .  A
C1645      C1646   1.398       .  A
C1645      H1648   1.074       .  S
C1646     Br1652   1.919       .  S
C1653      C2358   1.415       .  A
C1653      C1658   1.409       .  A
C1654      C2357   1.415   1_545  A
C1654      C1655   1.397       .  A
C1654     Br1670   1.920       .  S
C1655      C2360   1.399   1_545  A
C1655      H1659   1.084       .  S
C1656      C1660   1.485       .  S
C1656      C2359   1.399       .  A
C1656      C1657   1.410       .  A
C1657      C1658   1.409       .  A
C1657     Br1669   1.920       .  S
C1658      H1661   1.083       .  S
C1660      C1662   1.405       .  A
C1660      C2370   1.412       .  A
C1662      C1663   1.401       .  A
C1662      H1667   1.083       .  S
C1663      C1664   1.408       .  A
C1663     Br1671   1.918       .  S
C1664      C2369   1.401       .  A
C1665      C2368   1.401   1_545  A
C1665      C1666   1.400       .  A
C1665      H1668   1.084       .  S
C1666      C2364   1.411   1_545  A
C1666     Br1672   1.918       .  S
C1673      C1678   1.402       .  A
C1674      C1675   1.400       .  A
C1674     Br1690   1.917       .  S
C1675      H1679   1.084       .  S
C1676      C1680   1.484       .  S
C1676      C1677   1.410       .  A
C1677      C1678   1.404       .  A
C1677     Br1689   1.916       .  S
C1678      H1681   1.083       .  S
C1680      C1686   1.410       .  A
C1682      C1683   1.397       .  A
C1682      H1687   1.084       .  S
C1683     Br1691   1.915       .  S
C1684      C1685   1.406   1_455  A
C1685      C1686   1.407       .  A
C1685      H1688   1.083       .  S
C1686     Br1692   1.917       .  S
C1693      C1694   1.413       .  A
C1694      C1695   1.403       .  A
C1694     Br1710   1.914   1_655  S
C1695      C1696   1.403       .  A
C1695      H1699   1.084   1_655  S
C1696      C1700   1.486       .  S
C1697      C1698   1.403       .  A
C1697     Br1709   1.918       .  S
C1698      H1701   1.084       .  S
C1700      C1706   1.408       .  A
C1702      C1703   1.402       .  A
C1702      H1707   1.083       .  S
C1703     Br1711   1.917       .  S
C1704      C1705   1.405       .  A
C1705      C1706   1.405       .  A
C1705      H1708   1.084       .  S
C1706     Br1712   1.918       .  S
C1713      C1714   1.420       .  A
C1713      C1718   1.407   1_556  A
C1714      C1715   1.396       .  A
C1714     Br1730   1.926       .  S
C1715      C1716   1.400       .  A
C1715      H1719   1.084       .  S
C1716      C1720   1.472       .  S
C1716      C1717   1.404   1_556  A
C1717      C1718   1.391       .  A
C1717     Br1729   1.919       .  S
C1718      H1721   1.083       .  S
C1720      C1722   1.403   1_556  A
C1720      C1726   1.409       .  A
C1722      C1723   1.396       .  A
C1722      H1727   1.084       .  S
C1723      C1724   1.407       .  A
C1723     Br1731   1.918       .  S
C1724      C1725   1.400   1_554  A
C1725      C1726   1.395       .  A
C1725      H1728   1.083       .  S
C1726     Br1732   1.920       .  S
C1733      C1734   1.405   1_554  A
C1733      C1738   1.401       .  A
C1734      C1735   1.398       .  A
C1734     Br1750   1.918       .  S
C1735      C1736   1.403   1_556  A
C1735      H1739   1.083       .  S
C1736      C1740   1.473       .  S
C1736      C1737   1.409       .  A
C1737      C1738   1.396       .  A
C1737     Br1749   1.919       .  S
C1738      H1741   1.084       .  S
C1740      C1742   1.399       .  A
C1740      C1746   1.406   1_554  A
C1742      C1743   1.395       .  A
C1742      H1747   1.084       .  S
C1743      C1744   1.417       .  A
C1743     Br1751   1.923       .  S
C1744      C1745   1.407   1_554  A
C1745      C1746   1.397       .  A
C1745      H1748   1.083       .  S
C1746     Br1752   1.918       .  S
C1753      C1754   1.405       .  A
C1753      C1758   1.398   1_554  A
C1754      C1755   1.396       .  A
C1754     Br1770   1.918       .  S
C1755      C1756   1.404       .  A
C1755      H1759   1.083       .  S
C1756      C1760   1.473       .  S
C1756      C1757   1.411   1_554  A
C1757      C1758   1.392       .  A
C1757     Br1769   1.921       .  S
C1758      H1761   1.084       .  S
C1760      C1762   1.401   1_554  A
C1760      C1766   1.408       .  A
C1762      C1763   1.393       .  A
C1762      H1767   1.084       .  S
C1763      C1764   1.412   1_556  A
C1763     Br1771   1.923       .  S
C1764      C1765   1.406       .  A
C1765      C1766   1.394       .  A
C1765      H1768   1.084       .  S
C1766     Br1772   1.920       .  S
C1773      C1774   1.412       .  A
C1773      C1778   1.403   1_554  A
C1774      C1775   1.397       .  A
C1774     Br1790   1.922       .  S
C1775      C1776   1.400       .  A
C1775      H1779   1.084       .  S
C1776      C1780   1.469       .  S
C1776      C1777   1.406   1_554  A
C1777      C1778   1.396       .  A
C1777     Br1789   1.919       .  S
C1778      H1781   1.084       .  S
C1780      C1782   1.401   1_554  A
C1780      C1786   1.406       .  A
C1782      C1783   1.396       .  A
C1782      H1787   1.084       .  S
C1783      C1784   1.408   1_556  A
C1783     Br1791   1.918       .  S
C1784      C1785   1.402       .  A
C1785      C1786   1.395       .  A
C1785      H1788   1.084       .  S
C1786     Br1792   1.917       .  S
C1793      C1794   1.410   1_565  A
C1793      C2502   1.402       .  A
C1794      C1795   1.401       .  A
C1794     Br1810   1.919       .  S
C1795      C2500   1.403       .  A
C1795      H1799   1.083       .  S
C1796      C1800   1.480       .  S
C1796      C2499   1.403       .  A
C1796      C1797   1.409       .  A
C1797      C1798   1.398       .  A
C1797     Br1809   1.920       .  S
C1798      C2497   1.402       .  A
C1798      H1801   1.084       .  S
C1800      C1802   1.399       .  A
C1800      C2510   1.406       .  A
C1802      C1803   1.399       .  A
C1802      H1807   1.084       .  S
C1803      C1804   1.416       .  A
C1803     Br1811   1.914       .  S
C1804      C2509   1.412       .  A
C1805      C2508   1.412       .  A
C1805      C1806   1.402       .  A
C1805      H1808   1.083       .  S
C1806      C2504   1.406       .  A
C1806     Br1812   1.921       .  S
C1813      C2518   1.412   1_545  A
C1813      C1818   1.402       .  A
C1814      C2517   1.412       .  A
C1814      C1815   1.405       .  A
C1814     Br1830   1.918       .  S
C1815      C1816   1.405       .  A
C1815      H1819   1.083       .  S
C1816      C1820   1.487       .  S
C1816      C2521   1.410       .  A
C1817      C2520   1.410       .  A
C1817      C1818   1.398       .  A
C1817     Br1829   1.920       .  S
C1818      H1821   1.084       .  S
C1820      C2526   1.401       .  A
C1820      C1826   1.405       .  A
C1822      C2524   1.401       .  A
C1822      C1823   1.406       .  A
C1822      H1827   1.084       .  S
C1823      C2528   1.427   1_545  A
C1823     Br1831   1.924       .  S
C1824      C2527   1.427       .  A
C1824      C1825   1.413       .  A
C1825      C1826   1.398       .  A
C1825      H1828   1.075       .  S
C1826     Br1832   1.922       .  S
C1833      C1838   1.406   1_455  A
C1834      C1835   1.399       .  A
C1834     Br1850   1.919       .  S
C1835      H1839   1.084       .  S
C1836      C1840   1.483       .  S
C1836      C1837   1.408       .  A
C1837      C1838   1.406       .  A
C1837     Br1849   1.918       .  S
C1838      H1841   1.081       .  S
C1840      C1842   1.400       .  A
C1840      C1846   1.408       .  A
C1842      C1843   1.401       .  A
C1842      H1847   1.084       .  S
C1843      C1844   1.417       .  A
C1843     Br1851   1.921       .  S
C1844      C1845   1.407       .  A
C1845      C1846   1.404       .  A
C1845      H1848   1.083   1_655  S
C1846     Br1852   1.917   1_655  S
C1853      C1858   1.406       .  A
C1854      C1855   1.402       .  A
C1854     Br1870   1.914       .  S
C1855      H1859   1.084       .  S
C1856      C1860   1.491       .  S
C1856      C1857   1.412       .  A
C1857      C1858   1.409       .  A
C1857     Br1869   1.917       .  S
C1858      H1861   1.083       .  S
C1860      C1862   1.406       .  A
C1862      C1863   1.408       .  A
C1862      H1867   1.083       .  S
C1863      C1864   1.414   1_655  A
C1863     Br1871   1.917       .  S
C1865      C1866   1.401       .  A
C1865      H1868   1.083       .  S
C1866     Br1872   1.918       .  S
C1873      C1874   1.409       .  A
C1873      C1878   1.401       .  A
C1874      C1875   1.404       .  A
C1874     Br1890   1.917       .  S
C1875      C1876   1.406       .  A
C1875      H1879   1.083       .  S
C1876      C1880   1.491       .  S
C1876      C1877   1.412       .  A
C1877      C1878   1.401       .  A
C1877     Br1889   1.919       .  S
C1878      H1881   1.082       .  S
C1880      C1882   1.401       .  A
C1880      C1886   1.411       .  A
C1882      C1883   1.399       .  A
C1882      H1887   1.084       .  S
C1883      C1884   1.418       .  A
C1883     Br1891   1.924       .  S
C1884      C1885   1.406       .  A
C1885      C1886   1.407       .  A
C1885      H1888   1.080       .  S
C1886     Br1892   1.917       .  S
C1893      C1894   1.416       .  A
C1893      C1898   1.411       .  A
C1894      C1895   1.409       .  A
C1894     Br1910   1.920       .  S
C1895      C1896   1.406       .  A
C1895      H1899   1.083       .  S
C1896      C1900   1.492       .  S
C1896      C1897   1.406       .  A
C1897      C1898   1.401       .  A
C1897     Br1909   1.919       .  S
C1898      H1901   1.083       .  S
C1900      C1902   1.402       .  A
C1900      C1906   1.404       .  A
C1902      C1903   1.407       .  A
C1902      H1907   1.083       .  S
C1903      C1904   1.425       .  A
C1903     Br1911   1.925       .  S
C1904      C1905   1.416       .  A
C1905      C1906   1.404       .  A
C1905      H1908   1.076       .  S
C1906     Br1912   1.918       .  S
C1913      C1914   1.425       .  A
C1913      C1918   1.411       .  A
C1914      C1915   1.402       .  A
C1914     Br1930   1.919       .  S
C1915      C1916   1.397       .  A
C1915      H1919   1.084       .  S
C1916      C1920   1.490       .  S
C1916      C1917   1.408       .  A
C1917      C1918   1.409       .  A
C1917     Br1929   1.917       .  S
C1918      H1921   1.083       .  S
C1920      C1922   1.403       .  A
C1920      C1926   1.409       .  A
C1922      C1923   1.405       .  A
C1922      H1927   1.083       .  S
C1923      C1924   1.413       .  A
C1923     Br1931   1.914       .  S
C1924      C1925   1.405       .  A
C1925      C1926   1.402       .  A
C1925      H1928   1.084       .  S
C1926     Br1932   1.916       .  S
C1933      C1934   1.413       .  A
C1933      C1938   1.406       .  A
C1934      C1935   1.409       .  A
C1934     Br1950   1.913       .  S
C1935      C1936   1.408       .  A
C1935      H1939   1.083       .  S
C1936      C1940   1.499       .  S
C1936      C1937   1.411       .  A
C1937      C1938   1.401       .  A
C1937     Br1949   1.920       .  S
C1938      H1941   1.084       .  S
C1940      C1942   1.408       .  A
C1940      C1946   1.410       .  A
C1942      C1943   1.408       .  A
C1942      H1947   1.083       .  S
C1943      C1944   1.413       .  A
C1943     Br1951   1.916       .  S
C1944      C1945   1.411       .  A
C1945      C1946   1.404       .  A
C1945      H1948   1.083       .  S
C1946     Br1952   1.920       .  S
C1953      C1954   1.415       .  A
C1953      C1958   1.404       .  A
C1954      C1955   1.398       .  A
C1954     Br1970   1.919       .  S
C1955      C1956   1.399       .  A
C1955      H1959   1.084       .  S
C1956      C1960   1.466       .  S
C1956      C1957   1.402       .  A
C1957      C1958   1.393       .  A
C1957     Br1969   1.919       .  S
C1958      H1961   1.079       .  S
C1960      C1962   1.401       .  A
C1960      C1966   1.405       .  A
C1962      C1963   1.394       .  A
C1962      H1967   1.084       .  S
C1963      C1964   1.406       .  A
C1963     Br1971   1.919       .  S
C1964      C1965   1.403       .  A
C1965      C1966   1.395       .  A
C1965      H1968   1.084       .  S
C1966     Br1972   1.919       .  S
C1973      C1974   1.423       .  A
C1973      C1978   1.409       .  A
C1974      C1975   1.394       .  A
C1974     Br1990   1.928       .  S
C1975      C1976   1.398       .  A
C1975      H1979   1.084       .  S
C1976      C1980   1.477       .  S
C1976      C1977   1.407       .  A
C1977      C1978   1.397       .  A
C1977     Br1989   1.918       .  S
C1978      H1981   1.083       .  S
C1980      C1982   1.403       .  A
C1980      C1986   1.410       .  A
C1982      C1983   1.399       .  A
C1982      H1987   1.083       .  S
C1983      C1984   1.408       .  A
C1983     Br1991   1.919       .  S
C1984      C1985   1.401       .  A
C1985      C1986   1.396       .  A
C1985      H1988   1.083       .  S
C1986     Br1992   1.920       .  S
C1993      C1994   1.416       .  A
C1993      C1998   1.407       .  A
C1994      C1995   1.396       .  A
C1994     Br2010   1.921       .  S
C1995      C1996   1.398       .  A
C1995      H1999   1.084       .  S
C1996      C2000   1.475       .  S
C1996      C1997   1.408       .  A
C1997      C1998   1.401       .  A
C1997     Br2009   1.919       .  S
C1998      H2001   1.084       .  S
C2000      C2002   1.403       .  A
C2000      C2006   1.410       .  A
C2002      C2003   1.398       .  A
C2002      H2007   1.083       .  S
C2003      C2004   1.407       .  A
C2003     Br2011   1.920       .  S
C2004      C2005   1.399       .  A
C2005      C2006   1.396       .  A
C2005      H2008   1.084       .  S
C2006     Br2012   1.917       .  S
C2013      C2014   1.415       .  A
C2013      C2018   1.407       .  A
C2014      C2015   1.399       .  A
C2014     Br2030   1.922       .  S
C2015      C2016   1.400       .  A
C2015      H2019   1.084       .  S
C2016      C2020   1.469       .  S
C2016      C2017   1.403       .  A
C2017      C2018   1.394       .  A
C2017     Br2029   1.917       .  S
C2018      H2021   1.083       .  S
C2020      C2022   1.400       .  A
C2020      C2026   1.407       .  A
C2022      C2023   1.394       .  A
C2022      H2027   1.084       .  S
C2023      C2024   1.408       .  A
C2023     Br2031   1.919       .  S
C2024      C2025   1.403       .  A
C2025      C2026   1.398       .  A
C2025      H2028   1.084       .  S
C2026     Br2032   1.918       .  S
C2033      C2034   1.410       .  A
C2033      C2038   1.402       .  A
C2034      C2035   1.405       .  A
C2034     Br2050   1.920       .  S
C2035      C2036   1.406       .  A
C2035      H2039   1.083       .  S
C2036      C2040   1.492       .  S
C2036      C2037   1.411       .  A
C2037      C2038   1.403       .  A
C2037     Br2049   1.918       .  S
C2038      H2041   1.083       .  S
C2040      C2042   1.401       .  A
C2040      C2046   1.405       .  A
C2042      C2043   1.403       .  A
C2042      H2047   1.084       .  S
C2043      C2044   1.424       .  A
C2043     Br2051   1.921       .  S
C2044      C2045   1.416       .  A
C2045      C2046   1.404       .  A
C2045      H2048   1.078       .  S
C2046     Br2052   1.918       .  S
C2053      C2054   1.413       .  A
C2053      C2058   1.406       .  A
C2054      C2055   1.404       .  A
C2054     Br2070   1.920       .  S
C2055      C2056   1.403       .  A
C2055      H2059   1.083       .  S
C2056      C2060   1.479       .  S
C2056      C2057   1.404       .  A
C2057      C2058   1.395       .  A
C2057     Br2069   1.917       .  S
C2058      H2061   1.083       .  S
C2060      C2062   1.400       .  A
C2060      C2066   1.405       .  A
C2062      C2063   1.402       .  A
C2062      H2067   1.084       .  S
C2063      C2064   1.417       .  A
C2063     Br2071   1.917       .  S
C2064      C2065   1.409       .  A
C2065      C2066   1.399       .  A
C2065      H2068   1.083       .  S
C2066     Br2072   1.919       .  S
C2073      C2074   1.417       .  A
C2073      C2078   1.410       .  A
C2074      C2075   1.406       .  A
C2074     Br2090   1.922       .  S
C2075      C2076   1.404       .  A
C2075      H2079   1.083       .  S
C2076      C2080   1.485       .  S
C2076      C2077   1.404       .  A
C2077      C2078   1.399       .  A
C2077     Br2089   1.919       .  S
C2078      H2081   1.083       .  S
C2080      C2082   1.400       .  A
C2080      C2086   1.408       .  A
C2082      C2083   1.399       .  A
C2082      H2087   1.084       .  S
C2083      C2084   1.415       .  A
C2083     Br2091   1.920       .  S
C2084      C2085   1.408       .  A
C2085      C2086   1.408       .  A
C2085      H2088   1.083       .  S
C2086     Br2092   1.917       .  S
C2093      C2094   1.411       .  A
C2093      C2098   1.402       .  A
C2094      C2095   1.403       .  A
C2094     Br2110   1.919       .  S
C2095      C2096   1.405       .  A
C2095      H2099   1.084       .  S
C2096      C2100   1.490       .  S
C2096      C2097   1.412       .  A
C2097      C2098   1.402       .  A
C2097     Br2109   1.919       .  S
C2098      H2101   1.084       .  S
C2100      C2102   1.404       .  A
C2100      C2106   1.411       .  A
C2102      C2103   1.401       .  A
C2102      H2107   1.083       .  S
C2103      C2104   1.407       .  A
C2103     Br2111   1.913       .  S
C2104      C2105   1.407       .  A
C2105      C2106   1.406       .  A
C2105      H2108   1.084       .  S
C2106     Br2112   1.920       .  S
O2113      C2124   1.295       .  A
O2113     Eu2149   2.481       .  S
O2114      C2125   1.301       .  A
O2114     Eu2148   2.514       .  S
O2115      C2126   1.290       .  A
O2115     Eu2121   2.451       .  S
O2116      C2127   1.291       .  A
O2116     Eu2121   2.456       .  S
O2117      C2127   1.283       .  A
O2117     Eu2151   2.427       .  S
O2118      C2126   1.288       .  A
O2118     Eu2150   2.447       .  S
O2119      C2125   1.289       .  A
O2119     Eu2121   2.454       .  S
O2120      C2124   1.291       .  A
O2120     Eu2121   2.461       .  S
Eu2121     O2131   2.353       .  S
Eu2121     O2123   2.344       .  S
Eu2121     O2122   2.350       .  S
Eu2121     O2129   2.356       .  S
O2122     Eu2151   2.350       .  S
O2122     Eu2148   2.363       .  S
O2123     Eu2149   2.354       .  S
O2123     Eu2150   2.342       .  S
C2124      C2797   1.481       .  S
C2125      C2617   1.507       .  S
C2126      C2657   1.476       .  S
C2127      C2677   1.487       .  S
H2128      O2129   0.966       .  S
O2129     Eu2150   2.357       .  S
O2129     Eu2148   2.375       .  S
H2130      O2131   0.965       .  S
O2131     Eu2149   2.360       .  S
O2131     Eu2151   2.349       .  S
O2132      C2155   1.300       .  A
O2132     Eu2148   2.512       .  S
O2133      C2156   1.295       .  A
O2133     Eu2149   2.484       .  S
O2134      C2157   1.288       .  A
O2134     Eu2150   2.442       .  S
O2135      C2158   1.290       .  A
O2135     Eu2151   2.447       .  S
O2136      C2159   1.292       .  A
O2136     Eu2151   2.470       .  S
O2137      C2160   1.289       .  A
O2137     Eu2150   2.443       .  S
O2138      C2161   1.288       .  A
O2138     Eu2152   2.450       .  S
O2139      C2162   1.292       .  A
O2139     Eu2152   2.467       .  S
O2140      C2161   1.290       .  A
O2140     Eu2150   2.451       .  S
O2141      C2162   1.288       .  A
O2141     Eu2151   2.445       .  S
O2142      C2157   1.299       .  A
O2142     Eu2148   2.501       .  S
O2143      C2160   1.294       .  A
O2143     Eu2149   2.476       .  S
O2144      C2159   1.293       .  A
O2144     Eu2149   2.475       .  S
O2145      C2158   1.299       .  A
O2145     Eu2148   2.507       .  S
O2146      C2155   1.291       .  A
O2146     Eu2152   2.451       .  S
O2147      C2156   1.291       .  A
O2147     Eu2152   2.451       .  S
Eu2148     O2166   2.373       .  S
Eu2148     O2154   2.370       .  S
Eu2149     O2153   2.365       .  S
Eu2149     O2164   2.358       .  S
Eu2150     O2164   2.344       .  S
Eu2150     O2154   2.350       .  S
Eu2151     O2153   2.346       .  S
Eu2151     O2166   2.353       .  S
Eu2152     O2153   2.356       .  S
Eu2152     O2164   2.352       .  S
Eu2152     O2166   2.350       .  S
Eu2152     O2154   2.358       .  S
C2155      C2637   1.494       .  S
C2156      C2777   1.494       .  S
C2157      C2588   1.492       .  S
C2158      C2597   1.498       .  S
C2159      C2737   1.480       .  S
C2160      C2757   1.482       .  S
C2161      C2717   1.478       .  S
C2162      C2697   1.482       .  S
H2163      O2164   0.966       .  S
H2165      O2166   0.966       .  S
N2167      C2172   1.352       .  A
N2167      H2199   1.039       .  S
N2168      C2176   1.348   1_455  A
N2169      C2174   1.349       .  A
N2169      H2200   1.040       .  S
N2170      C2178   1.349   1_455  A
C2171      C2179   1.388       .  A
C2171      C2187   1.412       .  A
C2172      C2188   1.411       .  A
C2172      C2180   1.387       .  A
C2173      C2181   1.387       .  A
C2173      C2190   1.410       .  A
C2174      C2189   1.409       .  A
C2174      C2182   1.387       .  A
C2175      C2187   1.407       .  A
C2175      C2183   1.386       .  A
C2176      C2190   1.408       .  A
C2176      C2184   1.386       .  A
C2177      C2185   1.386       .  A
C2177      C2188   1.410       .  A
C2178      C2186   1.387       .  A
C2178      C2189   1.411       .  A
C2179      H2191   1.082       .  S
C2180      H2192   1.082       .  S
C2181      H2193   1.082       .  S
C2182      H2194   1.083       .  S
C2183      H2195   1.082       .  S
C2184      H2196   1.082       .  S
C2185      H2197   1.082       .  S
C2186      H2198   1.082       .  S
C2187      C2708   1.477       .  S
C2188      C2688   1.482       .  S
C2189      C2668   1.476       .  S
C2190      C2728   1.480       .  S
O2201      C2212   1.298       .  A
O2201     Eu2237   2.501       .  S
O2202      C2213   1.296       .  A
O2202     Eu2236   2.491       .  S
O2203      C2214   1.291   1_554  A
O2204      C2215   1.292       .  A
O2204     Eu2209   2.461       .  S
O2205      C2215   1.286       .  A
O2205     Eu2239   2.436       .  S
O2206      C2214   1.283       .  A
O2206     Eu2238   2.427   1_566  S
O2207      C2213   1.288       .  A
O2207     Eu2209   2.441       .  S
O2208      C2212   1.291       .  A
O2208     Eu2209   2.458   1_556  S
Eu2209     O2219   2.350   1_554  S
Eu2209     O2210   2.351       .  S
O2210     Eu2239   2.345       .  S
O2210     Eu2236   2.363       .  S
O2211     Eu2238   2.344   1_566  S
C2212      C2557   1.490       .  S
C2213      C2377   1.476       .  S
C2214      C2417   1.482       .  S
C2215      C2448   1.480       .  S
H2216      O2217   0.967       .  S
O2217     Eu2238   2.352   1_565  S
H2218      O2219   0.963       .  S
O2219     Eu2237   2.366       .  S
O2219     Eu2239   2.358   1_556  S
O2220      C2243   1.298       .  A
O2221      C2244   1.296       .  A
O2222      C2245   1.289       .  A
O2222     Eu2238   2.448   1_565  S
O2223      C2246   1.291       .  A
O2223     Eu2239   2.459       .  S
O2224     Eu2239   2.455   1_556  S
O2225     Eu2238   2.464   1_556  S
O2226      C2249   1.289       .  A
O2227      C2250   1.287       .  A
O2227     Eu2240   2.433       .  S
O2228      C2249   1.287       .  A
O2229      C2250   1.287       .  A
O2230      C2245   1.297       .  A
O2231      C2248   1.292       .  A
O2232      C2247   1.292       .  A
O2233      C2246   1.296       .  A
O2233     Eu2236   2.490       .  S
O2234      C2243   1.290       .  A
O2234     Eu2240   2.451       .  S
O2235      C2244   1.290       .  A
O2235     Eu2240   2.454   1_556  S
Eu2240     O2241   2.347   1_554  S
Eu2240     O2254   2.355       .  S
C2243      C2397   1.492       .  S
C2244      C2548   1.489       .  S
C2245      C2337   1.487       .  S
C2246      C2357   1.490       .  S
C2247      C2497   1.473       .  S
C2248      C2517   1.479       .  S
C2249      C2477   1.470       .  S
C2250      C2468   1.473       .  S
H2251      O2252   0.967       .  S
H2253      O2254   0.965       .  S
N2255      C2260   1.351   1_554  A
N2255      C2259   1.350   1_554  A
N2255      H2287   1.038       .  S
N2256      C2263   1.348       .  A
N2256      C2264   1.348       .  A
N2257      C2262   1.350   1_554  A
N2257      C2261   1.352   1_554  A
N2257      H2288   1.038       .  S
N2258      C2265   1.350       .  A
N2258      C2266   1.349       .  A
C2259      C2267   1.388       .  A
C2259      C2275   1.411   1_556  A
C2260      C2276   1.410   1_556  A
C2260      C2268   1.387       .  A
C2261      C2269   1.387       .  A
C2261      C2278   1.412   1_556  A
C2262      C2277   1.411   1_556  A
C2262      C2270   1.387       .  A
C2263      C2275   1.407       .  A
C2263      C2271   1.386       .  A
C2264      C2278   1.408       .  A
C2264      C2272   1.386       .  A
C2265      C2273   1.386       .  A
C2265      C2276   1.410       .  A
C2266      C2274   1.387       .  A
C2266      C2277   1.410       .  A
C2267      C2268   1.372       .  A
C2267      H2279   1.082       .  S
C2268      H2280   1.082       .  S
C2269      C2270   1.375       .  A
C2269      H2281   1.083       .  S
C2270      H2282   1.082       .  S
C2271      C2272   1.372       .  A
C2271      H2283   1.082       .  S
C2272      H2284   1.082       .  S
C2273      C2274   1.373       .  A
C2273      H2285   1.082       .  S
C2274      H2286   1.082       .  S
C2275      C2457   1.473       .  S
C2276      C2437   1.478       .  S
C2277      C2428   1.476       .  S
C2278      C2488   1.480       .  S
C2289      C2290   1.547       .  S
C2289      C2293   1.535       .  S
C2289      C2748   1.548       .  S
C2290      H2297   1.083       .  S
C2291      C2292   1.539   1_455  S
C2291      C2408   1.485   1_455  S
C2292      C2296   1.544       .  S
C2292      C2294   1.546   1_655  S
C2292      H2298   1.109       .  S
C2293      H2299   1.086       .  S
C2294      C2388   1.494       .  S
C2295      H2300   1.085       .  S
C2295      C2296   1.372   1_455  D
C2296      C2768   1.496       .  S
C2301      C2302   1.549       .  S
C2301      C2307   1.542       .  S
C2301      C2348   1.547       .  S
C2302      H2309   1.080       .  S
C2302      C2303   1.366       .  D
C2303      C2304   1.543       .  S
C2303      C2788   1.495       .  S
C2304      C2308   1.538       .  S
C2304      H2310   1.111       .  S
C2305      H2311   1.086       .  S
C2305      C2306   1.364       .  D
C2306      C2808   1.489       .  S
C2307      H2312   1.086       .  S
C2307      C2308   1.368       .  D
C2308      C2368   1.478       .  S
C2313      C2314   1.536       .  S
C2313      C2317   1.546       .  S
C2313      C2608   1.549       .  S
C2314      H2321   1.086       .  S
C2315      C2316   1.550   1_455  S
C2315      C2568   1.500       .  S
C2316      C2320   1.540       .  S
C2316      C2318   1.545   1_655  S
C2316      H2322   1.110       .  S
C2317      H2323   1.082       .  S
C2318      C2537   1.489       .  S
C2319      H2324   1.086       .  S
C2319      C2320   1.365   1_455  D
C2320      C2577   1.483       .  S
C2325      C2331   1.552   1_565  S
C2325      C2329   1.535       .  S
C2325      C2528   1.547       .  S
C2326      H2333   1.086       .  S
C2326      C2327   1.364       .  D
C2327      C2628   1.493       .  S
C2328      C2332   1.544       .  S
C2328      C2330   1.555   1_545  S
C2328      H2334   1.107       .  S
C2329      H2335   1.086       .  S
C2329      C2330   1.369       .  D
C2330      C2648   1.504       .  S
C2331      H2336   1.080       .  S
C2331      C2332   1.369       .  D
C2332      C2508   1.498       .  S
C2337      C2338   1.415       .  A
C2338      C2339   1.398       .  A
C2338     Br2354   1.915       .  S
C2339      C2340   1.398   1_565  A
C2339      H2343   1.084       .  S
C2340      C2344   1.483       .  S
C2341      C2342   1.405       .  A
C2341     Br2353   1.916       .  S
C2342      H2345   1.079       .  S
C2344      C2350   1.400   1_545  A
C2346      C2347   1.406       .  A
C2346      H2351   1.084       .  S
C2347     Br2355   1.924       .  S
C2348      C2349   1.416       .  A
C2349      C2350   1.398       .  A
C2349      H2352   1.074       .  S
C2350     Br2356   1.919       .  S
C2357      C2362   1.409       .  A
C2358      C2359   1.397       .  A
C2358     Br2374   1.920       .  S
C2359      H2363   1.084       .  S
C2360      C2364   1.485       .  S
C2360      C2361   1.410       .  A
C2361      C2362   1.409       .  A
C2361     Br2373   1.919       .  S
C2362      H2365   1.083       .  S
C2364      C2366   1.405       .  A
C2366      C2367   1.401       .  A
C2366      H2371   1.083       .  S
C2367      C2368   1.408       .  A
C2367     Br2375   1.918       .  S
C2369      C2370   1.400       .  A
C2369      H2372   1.084       .  S
C2370     Br2376   1.918       .  S
C2377      C2382   1.402       .  A
C2378      C2379   1.400       .  A
C2378     Br2394   1.917       .  S
C2379      H2383   1.084       .  S
C2380      C2384   1.484       .  S
C2380      C2381   1.410       .  A
C2381      C2382   1.404       .  A
C2381     Br2393   1.916       .  S
C2382      H2385   1.083       .  S
C2384      C2390   1.410       .  A
C2386      C2387   1.397       .  A
C2386      H2391   1.084       .  S
C2387     Br2395   1.915       .  S
C2388      C2389   1.406   1_455  A
C2389      C2390   1.407       .  A
C2389      H2392   1.083       .  S
C2390     Br2396   1.917       .  S
C2397      C2398   1.413       .  A
C2398      C2399   1.403       .  A
C2398     Br2414   1.914   1_655  S
C2399      C2400   1.403       .  A
C2399      H2403   1.084   1_655  S
C2400      C2404   1.486       .  S
C2401      C2402   1.403       .  A
C2401     Br2413   1.918       .  S
C2402      H2405   1.084       .  S
C2404      C2410   1.408       .  A
C2406      C2407   1.402       .  A
C2406      H2411   1.083       .  S
C2407     Br2415   1.917       .  S
C2408      C2409   1.405       .  A
C2409      C2410   1.405       .  A
C2409      H2412   1.084       .  S
C2410     Br2416   1.918       .  S
C2417      C2418   1.420       .  A
C2417      C2422   1.407   1_556  A
C2418      C2419   1.396       .  A
C2418     Br2434   1.926       .  S
C2419      C2420   1.400       .  A
C2419      H2423   1.084       .  S
C2420      C2424   1.472       .  S
C2420      C2421   1.404   1_556  A
C2421      C2422   1.391       .  A
C2421     Br2433   1.919       .  S
C2422      H2425   1.083       .  S
C2424      C2426   1.403   1_556  A
C2424      C2430   1.409       .  A
C2426      C2427   1.396       .  A
C2426      H2431   1.084       .  S
C2427      C2428   1.407       .  A
C2427     Br2435   1.918       .  S
C2428      C2429   1.399   1_554  A
C2429      C2430   1.395       .  A
C2429      H2432   1.083       .  S
C2430     Br2436   1.920       .  S
C2437      C2438   1.405   1_554  A
C2437      C2442   1.401       .  A
C2438      C2439   1.398       .  A
C2438     Br2454   1.918       .  S
C2439      C2440   1.403   1_556  A
C2439      H2443   1.083       .  S
C2440      C2444   1.473       .  S
C2440      C2441   1.409       .  A
C2441      C2442   1.396       .  A
C2441     Br2453   1.919       .  S
C2442      H2445   1.083       .  S
C2444      C2446   1.399       .  A
C2444      C2450   1.406   1_554  A
C2446      C2447   1.395       .  A
C2446      H2451   1.084       .  S
C2447      C2448   1.417       .  A
C2447     Br2455   1.923       .  S
C2448      C2449   1.407   1_554  A
C2449      C2450   1.397       .  A
C2449      H2452   1.083       .  S
C2450     Br2456   1.918       .  S
C2457      C2458   1.405       .  A
C2457      C2462   1.398   1_554  A
C2458      C2459   1.396       .  A
C2458     Br2474   1.918       .  S
C2459      C2460   1.404       .  A
C2459      H2463   1.083       .  S
C2460      C2464   1.473       .  S
C2460      C2461   1.411   1_554  A
C2461      C2462   1.392       .  A
C2461     Br2473   1.921       .  S
C2462      H2465   1.084       .  S
C2464      C2466   1.401   1_554  A
C2464      C2470   1.408       .  A
C2466      C2467   1.393       .  A
C2466      H2471   1.084       .  S
C2467      C2468   1.412   1_556  A
C2467     Br2475   1.923       .  S
C2468      C2469   1.406       .  A
C2469      C2470   1.394       .  A
C2469      H2472   1.084       .  S
C2470     Br2476   1.920       .  S
C2477      C2478   1.412       .  A
C2477      C2482   1.403   1_554  A
C2478      C2479   1.397       .  A
C2478     Br2494   1.922       .  S
C2479      C2480   1.400       .  A
C2479      H2483   1.084       .  S
C2480      C2484   1.469       .  S
C2480      C2481   1.406   1_554  A
C2481      C2482   1.396       .  A
C2481     Br2493   1.919       .  S
C2482      H2485   1.084       .  S
C2484      C2486   1.401   1_554  A
C2484      C2490   1.406       .  A
C2486      C2487   1.396       .  A
C2486      H2491   1.084       .  S
C2487      C2488   1.408   1_556  A
C2487     Br2495   1.918       .  S
C2488      C2489   1.402       .  A
C2489      C2490   1.395       .  A
C2489      H2492   1.084       .  S
C2490     Br2496   1.917       .  S
C2497      C2498   1.410       .  A
C2498      C2499   1.401       .  A
C2498     Br2514   1.919       .  S
C2499      H2503   1.083       .  S
C2500      C2504   1.480       .  S
C2500      C2501   1.409   1_545  A
C2501      C2502   1.398       .  A
C2501     Br2513   1.920       .  S
C2502      H2505   1.084       .  S
C2504      C2506   1.399   1_545  A
C2506      C2507   1.399       .  A
C2506      H2511   1.084       .  S
C2507      C2508   1.416   1_565  A
C2507     Br2515   1.914       .  S
C2509      C2510   1.402       .  A
C2509      H2512   1.083       .  S
C2510     Br2516   1.921       .  S
C2517      C2522   1.402       .  A
C2518      C2519   1.405       .  A
C2518     Br2534   1.918       .  S
C2519      C2520   1.405   1_565  A
C2519      H2523   1.083       .  S
C2520      C2524   1.487       .  S
C2521      C2522   1.398       .  A
C2521     Br2533   1.920       .  S
C2522      H2525   1.084       .  S
C2524      C2530   1.405   1_545  A
C2526      C2527   1.406       .  A
C2526      H2531   1.084       .  S
C2527     Br2535   1.924       .  S
C2528      C2529   1.413       .  A
C2529      C2530   1.398       .  A
C2529      H2532   1.075       .  S
C2530     Br2536   1.922       .  S
C2537      C2542   1.406   1_455  A
C2538      C2539   1.399       .  A
C2538     Br2554   1.919       .  S
C2539      H2543   1.084       .  S
C2540      C2544   1.483       .  S
C2540      C2541   1.408       .  A
C2541      C2542   1.406       .  A
C2541     Br2553   1.918       .  S
C2542      H2545   1.081       .  S
C2544      C2546   1.400       .  A
C2544      C2550   1.408       .  A
C2546      C2547   1.401       .  A
C2546      H2551   1.084       .  S
C2547      C2548   1.417       .  A
C2547     Br2555   1.921       .  S
C2548      C2549   1.407       .  A
C2549      C2550   1.404       .  A
C2549      H2552   1.083   1_655  S
C2550     Br2556   1.917   1_655  S
C2557      C2562   1.406       .  A
C2558      C2559   1.402       .  A
C2558     Br2574   1.914       .  S
C2559      H2563   1.084       .  S
C2560      C2564   1.491       .  S
C2560      C2561   1.412       .  A
C2561      C2562   1.409       .  A
C2561     Br2573   1.917       .  S
C2562      H2565   1.083       .  S
C2564      C2566   1.406       .  A
C2566      C2567   1.408       .  A
C2566      H2571   1.083       .  S
C2567      C2568   1.414   1_655  A
C2567     Br2575   1.917       .  S
C2569      C2570   1.401       .  A
C2569      H2572   1.083       .  S
C2570     Br2576   1.918       .  S
C2577      C2578   1.409       .  A
C2577      C2582   1.401       .  A
C2578      C2579   1.405       .  A
C2578     Br2594   1.917       .  S
C2579      C2580   1.406       .  A
C2579      H2583   1.083       .  S
C2580      C2584   1.491       .  S
C2580      C2581   1.412       .  A
C2581      C2582   1.401       .  A
C2581     Br2593   1.919       .  S
C2582      H2585   1.082       .  S
C2584      C2586   1.402       .  A
C2584      C2590   1.411       .  A
C2586      C2587   1.399       .  A
C2586      H2591   1.084       .  S
C2587      C2588   1.418       .  A
C2587     Br2595   1.924       .  S
C2588      C2589   1.406       .  A
C2589      C2590   1.407       .  A
C2589      H2592   1.080       .  S
C2590     Br2596   1.917       .  S
C2597      C2598   1.416       .  A
C2597      C2602   1.411       .  A
C2598      C2599   1.409       .  A
C2598     Br2614   1.919       .  S
C2599      C2600   1.406       .  A
C2599      H2603   1.083       .  S
C2600      C2604   1.492       .  S
C2600      C2601   1.406       .  A
C2601      C2602   1.401       .  A
C2601     Br2613   1.919       .  S
C2602      H2605   1.083       .  S
C2604      C2606   1.401       .  A
C2604      C2610   1.404       .  A
C2606      C2607   1.407       .  A
C2606      H2611   1.083       .  S
C2607      C2608   1.425       .  A
C2607     Br2615   1.925       .  S
C2608      C2609   1.416       .  A
C2609      C2610   1.404       .  A
C2609      H2612   1.076       .  S
C2610     Br2616   1.918       .  S
C2617      C2618   1.425       .  A
C2617      C2622   1.411       .  A
C2618      C2619   1.402       .  A
C2618     Br2634   1.919       .  S
C2619      C2620   1.397       .  A
C2619      H2623   1.084       .  S
C2620      C2624   1.490       .  S
C2620      C2621   1.408       .  A
C2621      C2622   1.409       .  A
C2621     Br2633   1.917       .  S
C2622      H2625   1.083       .  S
C2624      C2626   1.403       .  A
C2624      C2630   1.409       .  A
C2626      C2627   1.405       .  A
C2626      H2631   1.083       .  S
C2627      C2628   1.413       .  A
C2627     Br2635   1.914       .  S
C2628      C2629   1.405       .  A
C2629      C2630   1.402       .  A
C2629      H2632   1.084       .  S
C2630     Br2636   1.916       .  S
C2637      C2638   1.413       .  A
C2637      C2642   1.406       .  A
C2638      C2639   1.409       .  A
C2638     Br2654   1.913       .  S
C2639      C2640   1.408       .  A
C2639      H2643   1.083       .  S
C2640      C2644   1.499       .  S
C2640      C2641   1.411       .  A
C2641      C2642   1.401       .  A
C2641     Br2653   1.920       .  S
C2642      H2645   1.084       .  S
C2644      C2646   1.408       .  A
C2644      C2650   1.410       .  A
C2646      C2647   1.408       .  A
C2646      H2651   1.083       .  S
C2647      C2648   1.413       .  A
C2647     Br2655   1.916       .  S
C2648      C2649   1.411       .  A
C2649      C2650   1.404       .  A
C2649      H2652   1.083       .  S
C2650     Br2656   1.920       .  S
C2657      C2658   1.415       .  A
C2657      C2662   1.404       .  A
C2658      C2659   1.398       .  A
C2658     Br2674   1.919       .  S
C2659      C2660   1.399       .  A
C2659      H2663   1.084       .  S
C2660      C2664   1.466       .  S
C2660      C2661   1.402       .  A
C2661      C2662   1.393       .  A
C2661     Br2673   1.919       .  S
C2662      H2665   1.079       .  S
C2664      C2666   1.401       .  A
C2664      C2670   1.405       .  A
C2666      C2667   1.394       .  A
C2666      H2671   1.084       .  S
C2667      C2668   1.406       .  A
C2667     Br2675   1.919       .  S
C2668      C2669   1.403       .  A
C2669      C2670   1.395       .  A
C2669      H2672   1.084       .  S
C2670     Br2676   1.919       .  S
C2677      C2678   1.423       .  A
C2677      C2682   1.409       .  A
C2678      C2679   1.394       .  A
C2678     Br2694   1.928       .  S
C2679      C2680   1.398       .  A
C2679      H2683   1.084       .  S
C2680      C2684   1.477       .  S
C2680      C2681   1.407       .  A
C2681      C2682   1.397       .  A
C2681     Br2693   1.918       .  S
C2682      H2685   1.083       .  S
C2684      C2686   1.403       .  A
C2684      C2690   1.410       .  A
C2686      C2687   1.399       .  A
C2686      H2691   1.083       .  S
C2687      C2688   1.408       .  A
C2687     Br2695   1.919       .  S
C2688      C2689   1.401       .  A
C2689      C2690   1.396       .  A
C2689      H2692   1.083       .  S
C2690     Br2696   1.920       .  S
C2697      C2698   1.416       .  A
C2697      C2702   1.407       .  A
C2698      C2699   1.396       .  A
C2698     Br2714   1.921       .  S
C2699      C2700   1.398       .  A
C2699      H2703   1.084       .  S
C2700      C2704   1.475       .  S
C2700      C2701   1.408       .  A
C2701      C2702   1.401       .  A
C2701     Br2713   1.919       .  S
C2702      H2705   1.084       .  S
C2704      C2706   1.403       .  A
C2704      C2710   1.410       .  A
C2706      C2707   1.398       .  A
C2706      H2711   1.083       .  S
C2707      C2708   1.407       .  A
C2707     Br2715   1.920       .  S
C2708      C2709   1.399       .  A
C2709      C2710   1.396       .  A
C2709      H2712   1.084       .  S
C2710     Br2716   1.917       .  S
C2717      C2718   1.415       .  A
C2717      C2722   1.407       .  A
C2718      C2719   1.399       .  A
C2718     Br2734   1.922       .  S
C2719      C2720   1.400       .  A
C2719      H2723   1.084       .  S
C2720      C2724   1.469       .  S
C2720      C2721   1.403       .  A
C2721      C2722   1.394       .  A
C2721     Br2733   1.917       .  S
C2722      H2725   1.083       .  S
C2724      C2726   1.400       .  A
C2724      C2730   1.407       .  A
C2726      C2727   1.394       .  A
C2726      H2731   1.084       .  S
C2727      C2728   1.408       .  A
C2727     Br2735   1.919       .  S
C2728      C2729   1.403       .  A
C2729      C2730   1.398       .  A
C2729      H2732   1.084       .  S
C2730     Br2736   1.918       .  S
C2737      C2738   1.410       .  A
C2737      C2742   1.402       .  A
C2738      C2739   1.405       .  A
C2738     Br2754   1.920       .  S
C2739      C2740   1.406       .  A
C2739      H2743   1.083       .  S
C2740      C2744   1.491       .  S
C2740      C2741   1.411       .  A
C2741      C2742   1.403       .  A
C2741     Br2753   1.918       .  S
C2742      H2745   1.083       .  S
C2744      C2746   1.401       .  A
C2744      C2750   1.405       .  A
C2746      C2747   1.403       .  A
C2746      H2751   1.084       .  S
C2747      C2748   1.424       .  A
C2747     Br2755   1.921       .  S
C2748      C2749   1.416       .  A
C2749      C2750   1.404       .  A
C2749      H2752   1.078       .  S
C2750     Br2756   1.918       .  S
C2757      C2758   1.413       .  A
C2757      C2762   1.406       .  A
C2758      C2759   1.404       .  A
C2758     Br2774   1.920       .  S
C2759      C2760   1.403       .  A
C2759      H2763   1.083       .  S
C2760      C2764   1.479       .  S
C2760      C2761   1.404       .  A
C2761      C2762   1.395       .  A
C2761     Br2773   1.917       .  S
C2762      H2765   1.083       .  S
C2764      C2766   1.400       .  A
C2764      C2770   1.405       .  A
C2766      C2767   1.402       .  A
C2766      H2771   1.084       .  S
C2767      C2768   1.417       .  A
C2767     Br2775   1.917       .  S
C2768      C2769   1.409       .  A
C2769      C2770   1.399       .  A
C2769      H2772   1.083       .  S
C2770     Br2776   1.919       .  S
C2777      C2778   1.417       .  A
C2777      C2782   1.410       .  A
C2778      C2779   1.406       .  A
C2778     Br2794   1.922       .  S
C2779      C2780   1.404       .  A
C2779      H2783   1.083       .  S
C2780      C2784   1.485       .  S
C2780      C2781   1.404       .  A
C2781      C2782   1.399       .  A
C2781     Br2793   1.919       .  S
C2782      H2785   1.083       .  S
C2784      C2786   1.400       .  A
C2784      C2790   1.408       .  A
C2786      C2787   1.399       .  A
C2786      H2791   1.084       .  S
C2787      C2788   1.415       .  A
C2787     Br2795   1.920       .  S
C2788      C2789   1.408       .  A
C2789      C2790   1.407       .  A
C2789      H2792   1.083       .  S
C2790     Br2796   1.917       .  S
C2797      C2798   1.411       .  A
C2797      C2802   1.402       .  A
C2798      C2799   1.403       .  A
C2798     Br2814   1.919       .  S
C2799      C2800   1.405       .  A
C2799      H2803   1.084       .  S
C2800      C2804   1.490       .  S
C2800      C2801   1.412       .  A
C2801      C2802   1.402       .  A
C2801     Br2813   1.919       .  S
C2802      H2805   1.084       .  S
C2804      C2806   1.404       .  A
C2804      C2810   1.411       .  A
C2806      C2807   1.401       .  A
C2806      H2811   1.083       .  S
C2807      C2808   1.407       .  A
C2807     Br2815   1.913       .  S
C2808      C2809   1.407       .  A
C2809      C2810   1.406       .  A
C2809      H2812   1.084       .  S
C2810     Br2816   1.920       .  S
