geometry optimzed in LAMMPS
_audit_creation_date              2020-11-30 
_audit_creation_method            'lammps2cif' 
_symmetry_space_group_name_H-M    'P1' 
_symmetry_Int_Tables_number       1 
_symmetry_cell_setting            triclinic 
loop_ 
_symmetry_equiv_pos_as_xyz 
  x,y,z 
_cell_length_a                    50.2289557 
_cell_length_b                    50.32332228052498 
_cell_length_c                    33.2494643594168 
_cell_angle_alpha                 89.8024611437956 
_cell_angle_beta                  89.98968838562571 
_cell_angle_gamma                 89.57743617685301 
loop_ 
_atom_site_label 
_atom_site_type_symbol 
_atom_site_fract_x 
_atom_site_fract_y 
_atom_site_fract_z 
_atom_site_charge 
O1          O  0.25364446  0.20289940  0.38493888    -0.80300
O2          O  0.24809714  0.20335234  0.61864671    -0.81800
O3          O  0.29653863  0.17782194  0.50416959    -0.78900
O4          O  0.21083881  0.17085120  0.49685895    -0.77200
O5          O  0.17664890  0.20068078  0.49442565    -0.79000
O6          O  0.32632461  0.21159059  0.50606855    -0.80000
O7          O  0.25168363  0.17389830  0.56657224    -0.81300
O8          O  0.25713931  0.17390472  0.43806522    -0.81600
Eu9        Eu  0.25175125  0.19675334  0.50195567     2.39200
O10         O  0.22233745  0.22084153  0.54305442    -0.89100
O11         O  0.27653897  0.22528314  0.46107325    -0.92700
C12         C  0.25685760  0.17918925  0.40016065     1.02000
C13         C  0.25056530  0.17932345  0.60434415     1.01800
C14         C  0.32047283  0.18679839  0.50524110     1.01800
C15         C  0.18592140  0.17669884  0.49379475     0.99600
H16         H  0.28727570  0.21428942  0.56169954     0.29400
O17         O  0.27558336  0.22490049  0.54494138    -1.01500
H18         H  0.21435758  0.20862814  0.44041951     0.29400
O19         O  0.22444445  0.22060253  0.45689408    -1.04000
O20         O  0.24576356  0.29615203  0.61569419    -0.81200
O21         O  0.24790643  0.29529323  0.38320538    -0.80800
O22         O  0.32230926  0.25553588  0.56988196    -0.79200
O23         O  0.17139859  0.24472288  0.56030786    -0.82600
O24         O  0.17255658  0.24565651  0.43413210    -0.80400
O25         O  0.32539583  0.24788526  0.44020092    -0.79100
O26         O  0.28656826  0.32715964  0.49570158    -0.80600
O27         O  0.20092895  0.32086160  0.49794433    -0.82500
O28         O  0.32096127  0.29754675  0.49772373    -0.79300
O29         O  0.17100425  0.28716524  0.49551546    -0.81900
O30         O  0.29118366  0.25101297  0.62000660    -0.77700
O31         O  0.29615534  0.24793182  0.38706742    -0.77700
O32         O  0.20319222  0.24718753  0.38302213    -0.77300
O33         O  0.19894957  0.24865128  0.61448768    -0.80800
O34         O  0.24484938  0.32537575  0.56266060    -0.80300
O35         O  0.24350319  0.32462108  0.43533390    -0.78600
Eu36       Eu  0.24615634  0.24944940  0.58690642     2.39800
Eu37       Eu  0.24947228  0.24898699  0.41446198     2.39600
Eu38       Eu  0.30121296  0.25298051  0.50354670     2.38400
Eu39       Eu  0.19585701  0.24542223  0.49799547     2.39900
Eu40       Eu  0.24537094  0.30151354  0.49949806     2.39800
O41         O  0.22090833  0.27378162  0.45678679    -0.93000
O42         O  0.27223896  0.27752450  0.54464729    -0.91900
C43         C  0.24513368  0.32010481  0.60051400     1.02200
C44         C  0.24510488  0.31927478  0.39759755     1.00900
C45         C  0.31548604  0.25381449  0.60720062     1.00300
C46         C  0.17536072  0.24671083  0.59831519     1.02300
C47         C  0.17881253  0.24643807  0.39668864     1.01200
C48         C  0.31999416  0.24682824  0.40234951     1.00100
C49         C  0.31160532  0.32143012  0.49475638     1.00100
C50         C  0.17702748  0.31196057  0.49581429     1.02700
H51         H  0.28500091  0.28855129  0.44192420     0.30100
O52         O  0.27417903  0.27693728  0.45816264    -1.05200
H53         H  0.20708269  0.28491730  0.55612346     0.32100
O54         O  0.21939511  0.27399035  0.54100731    -1.07700
N55         N  0.49362418  0.45708997  0.39549162    -0.36800
N56         N  0.45576458  0.00422488  0.40299103    -0.57300
N57         N  0.50089275  0.04059215  0.40766233    -0.36800
N58         N  0.03634760  0.99484052  0.41009521    -0.57300
C59         C  0.47057478  0.44449312  0.40412921     0.26800
C60         C  0.01592755  0.43945203  0.40667181     0.26800
C61         C  0.48098768  0.05646139  0.42098876     0.26800
C62         C  0.02118472  0.04973345  0.42994278     0.26800
C63         C  0.44000060  0.48287739  0.39501645     0.35400
C64         C  0.44247746  0.02757688  0.40371674     0.35400
C65         C  0.05323451  0.47059715  0.39285003     0.35400
C66         C  0.05374442  0.01513391  0.40987415     0.35400
C67         C  0.47601283  0.41892576  0.41759513    -0.22000
C68         C  0.00611314  0.41544110  0.42084137    -0.22000
C69         C  0.49156262  0.07867328  0.43955806    -0.22000
C70         C  0.01423796  0.07200885  0.45208470    -0.22000
C71         C  0.41508320  0.49409867  0.38881709    -0.23100
C72         C  0.41548317  0.02350220  0.39777278    -0.23100
C73         C  0.07971502  0.47577038  0.38423708    -0.23100
C74         C  0.07918142  0.00592757  0.40144530    -0.23100
C75         C  0.44476636  0.45570276  0.40194234    -0.18500
C76         C  0.04323954  0.44536799  0.40285079    -0.18500
C77         C  0.04755068  0.04081489  0.42371381    -0.18400
C78         C  0.45349354  0.05163915  0.41699861    -0.18400
H79         H  0.46193207  0.40391266  0.42682053     0.14500
H80         H  0.01735243  0.39807210  0.43024540     0.14500
H81         H  0.48086222  0.09506961  0.45321019     0.14500
H82         H  0.02739022  0.08529198  0.46796538     0.14500
H83         H  0.39647207  0.48381247  0.38433220     0.12700
H84         H  0.39965613  0.03821367  0.39849418     0.12700
H85         H  0.09554260  0.46139866  0.37951537     0.12700
H86         H  0.09742345  0.01723854  0.40102510     0.12700
H87         H  0.49570520  0.47566177  0.38214887     0.26000
H88         H  0.49885851  0.02387967  0.38969313     0.26000
O89         O  0.50613516  0.45136024  0.88556082    -0.80300
O90         O  0.50026784  0.45734174  0.11785428    -0.81800
O91         O  0.05184336  0.43118340  0.01014848    -0.78900
O92         O  0.46468654  0.42296522  0.00972178    -0.77200
O93         O  0.43075954  0.45323930  0.00984747    -0.79000
O94         O  0.08076010  0.46560996  0.00726301    -0.80000
O95         O  0.50490093  0.42669970  0.06730946    -0.81300
O96         O  0.50907326  0.42332047  0.93971905    -0.81600
Eu97       Eu  0.50578270  0.44824030  0.00209080     2.39200
O98         O  0.47788598  0.47422544  0.04268100    -0.89100
O99         O  0.03048758  0.47595102  0.95981365    -0.92700
C100        C  0.50876871  0.42775490  0.90155367     1.02000
C101        C  0.50217686  0.43308454  0.10448342     1.01800
C102        C  0.07552419  0.44075388  0.01119257     1.01800
C103        C  0.43996015  0.42938155  0.01353750     0.99600
H104        H  0.04186268  0.46834785  0.06242166     0.29400
O105        O  0.02983815  0.47841513  0.04544251    -1.01500
H106        H  0.46618962  0.45831574  0.94281472     0.29400
O107        O  0.47689687  0.47084221  0.95761051    -1.04000
O108        O  0.50314787  0.05143702  0.11416642    -0.81200
O109        O  0.49970763  0.04361282  0.88080018    -0.80800
O110        O  0.07661391  0.50967925  0.06491101    -0.79200
O111        O  0.42537894  0.49806130  0.06131263    -0.82600
O112        O  0.42639760  0.99877594  0.93657435    -0.80400
O113        O  0.07504502  0.00269946  0.93191259    -0.79100
O114        O  0.03885407  0.07846655  0.00160970    -0.80600
O115        O  0.45617233  0.07543976  0.99943466    -0.82500
O116        O  0.07228202  0.04771053  0.00148951    -0.79300
O117        O  0.42620322  0.04185391  0.00093771    -0.81900
O118        O  0.04720851  0.50533032  0.11735658    -0.77700
O119        O  0.04526493  0.99909122  0.88012902    -0.77700
O120        O  0.45592838  0.99727412  0.88406296    -0.77300
O121        O  0.45394696  0.50169464  0.11456400    -0.80800
O122        O  0.50168978  0.07865004  0.05917299    -0.80300
O123        O  0.49847259  0.07515979  0.93058175    -0.78600
Eu124      Eu  0.50147544  0.50302206  0.08591375     2.39800
Eu125      Eu  0.50252059  0.99851293  0.91405786     2.39600
Eu126      Eu  0.05383814  0.50579610  0.00075353     2.38400
Eu127      Eu  0.44968275  0.49740040  0.99900039     2.39900
Eu128      Eu  0.49984749  0.05419229  0.99631370     2.39800
O129        O  0.47499046  0.02557065  0.95555805    -0.93000
O130        O  0.02489137  0.02944296  0.03877459    -0.91900
C131        C  0.50281273  0.07487980  0.09744805     1.02200
C132        C  0.49878533  0.06806579  0.89347054     1.00900
C133        C  0.07114131  0.50830213  0.10267570     1.00300
C134        C  0.43002062  0.49996705  0.09914099     1.02300
C135        C  0.43181684  0.99830755  0.89871909     1.01200
C136        C  0.06947354  0.00027640  0.89430948     1.00100
C137        C  0.06355584  0.07171331  0.00480502     1.00100
C138        C  0.43224003  0.06668890  0.00177662     1.02700
H139        H  0.03544120  0.03985170  0.93671721     0.30100
O140        O  0.02448193  0.02845308  0.95302346    -1.05200
H141        H  0.46339094  0.03964077  0.05659579     0.32100
O142        O  0.47505500  0.02830075  0.04123925    -1.07700
N143        N  0.25697870  0.29085182  0.09938384    -0.36800
N144        N  0.21015391  0.25670769  0.09551255    -0.57300
N145        N  0.24591822  0.21179287  0.08936323    -0.36800
N146        N  0.29279520  0.24595283  0.09747052    -0.57300
C147        C  0.23735123  0.30872917  0.10595399     0.26800
C148        C  0.28026982  0.30292651  0.10773912     0.26800
C149        C  0.22248949  0.19914133  0.09443878     0.26800
C150        C  0.26554050  0.19362430  0.09446634     0.26800
C151        C  0.19853802  0.28050370  0.08793242     0.35400
C152        C  0.19242283  0.23799336  0.08441825     0.35400
C153        C  0.31040439  0.26558586  0.09021547     0.35400
C154        C  0.30434885  0.22336864  0.08413359     0.35400
C155        C  0.24819981  0.33235453  0.11944911    -0.22000
C156        C  0.27535930  0.32867156  0.12059816    -0.22000
C157        C  0.22735008  0.17258020  0.10335083    -0.22000
C158        C  0.25457092  0.16912149  0.10344028    -0.22000
C159        C  0.17296441  0.27687313  0.07327385    -0.23100
C160        C  0.16899744  0.24993954  0.07146757    -0.23100
C161        C  0.33353853  0.25534728  0.07352113    -0.23100
C162        C  0.32967918  0.22857263  0.06952150    -0.23100
C163        C  0.21055720  0.30548422  0.09441436    -0.18500
C164        C  0.30564959  0.29273138  0.09781652    -0.18500
C165        C  0.29267923  0.19796490  0.08590701    -0.18400
C166        C  0.19716977  0.21026684  0.08590090    -0.18400
H167        H  0.23771132  0.35071528  0.12592234     0.14500
H168        H  0.28991700  0.34362874  0.12804122     0.14500
H169        H  0.21286142  0.15705164  0.10784686     0.14500
H170        H  0.26507341  0.15049059  0.10796592     0.14500
H171        H  0.15869362  0.29201245  0.06443344     0.12700
H172        H  0.15112521  0.24028636  0.06097296     0.12700
H173        H  0.35112914  0.26610556  0.06440444     0.12700
H174        H  0.34379308  0.21462712  0.05670455     0.12700
H175        H  0.25484150  0.27340737  0.08326151     0.26000
H176        H  0.24836545  0.23042819  0.07650810     0.26000
C177        C  0.49706644  0.25419900  0.24953432    -0.02600
C178        C  0.25094855  0.00190959  0.24963900    -0.02600
C179        C  0.49565927  0.24844654  0.75202232    -0.02600
C180        C  0.25160101  0.99746781  0.74894754    -0.02600
C181        C  0.09509038  0.51038756  0.12929868    -0.20000
C182        C  0.10223144  0.49050795  0.15752327     0.36200
C183        C  0.12812555  0.49044334  0.17475222    -0.26000
C184        C  0.14708594  0.50987154  0.16446719     0.02600
C185        C  0.14737355  0.00029565  0.11537201     0.27400
C186        C  0.12191840  0.99886703  0.09803797    -0.25100
N187        N  0.08383694  0.46964025  0.16680362    -0.82500
H188        H  0.13368090  0.47498528  0.19596916     0.13200
C189        C  0.17457086  0.50904644  0.18260358     0.02600
N190        N  0.17069052  0.99747830  0.09054622    -0.81100
H191        H  0.12095934  0.99471446  0.06616618     0.18100
C192        C  0.19576219  0.98583947  0.17067155    -0.25900
C193        C  0.22045187  0.98542285  0.19104334     0.36100
C194        C  0.22529293  0.50474596  0.22267967    -0.20000
C195        C  0.20937050  0.52810822  0.22484155    -0.25200
C196        C  0.18402731  0.52988579  0.20671345     0.27500
H197        H  0.19075997  0.96922271  0.15154634     0.13200
N198        N  0.23831623  0.96354379  0.18456976    -0.82500
H199        H  0.21591667  0.54526385  0.24130147     0.18100
N200        N  0.16751331  0.55267130  0.21413969    -0.81100
H201        H  0.24340516  0.96329294  0.15408285     0.33700
H202        H  0.22828856  0.94592449  0.19113648     0.38200
H203        H  0.16453840  0.55412316  0.24518398     0.32300
H204        H  0.17781912  0.56955572  0.20469917     0.30400
H205        H  0.16544343  0.99419537  0.06055404     0.33700
H206        H  0.18077335  0.01557499  0.09106743     0.30400
H207        H  0.06760054  0.47825766  0.18164113     0.38200
H208        H  0.09240564  0.45607932  0.18697161     0.33700
C209        C  0.40489838  0.50076883  0.12413879    -0.20000
C210        C  0.40438948  0.99741663  0.16745934     0.36200
C211        C  0.37877148  0.99660103  0.18588552    -0.26000
C212        C  0.35326226  0.49761177  0.16127937     0.02600
C213        C  0.35640788  0.50911265  0.12292438     0.27400
C214        C  0.38177397  0.51123265  0.10556297    -0.25100
N215        N  0.42773040  0.99001927  0.18989828    -0.82500
H216        H  0.37712182  0.99100053  0.21726582     0.13200
C217        C  0.32601121  0.49660956  0.18088778     0.02600
N218        N  0.33362747  0.51792807  0.10054511    -0.81100
H219        H  0.38312375  0.52046082  0.07612369     0.18100
C220        C  0.31020274  0.02273309  0.18036929    -0.25900
C221        C  0.28456705  0.02201628  0.19765119     0.36100
C222        C  0.27508377  0.49718438  0.22118534    -0.20000
C223        C  0.29045599  0.47351135  0.21705885    -0.25200
C224        C  0.31566302  0.47308757  0.19787969     0.27500
H225        H  0.31623140  0.04052408  0.16445272     0.13200
N226        N  0.26711011  0.04437311  0.19206604    -0.82500
H227        H  0.28295506  0.45488469  0.22829134     0.18100
N228        N  0.33061774  0.44868470  0.19527195    -0.81100
H229        H  0.26374872  0.04668172  0.16121495     0.33700
H230        H  0.27674457  0.06140149  0.20233377     0.38200
H231        H  0.32045969  0.43317584  0.20939617     0.33700
H232        H  0.33210699  0.44368575  0.16485329     0.30400
H233        H  0.33581748  0.53821140  0.09489117     0.33700
H234        H  0.33341891  0.50794021  0.07302459     0.30400
H235        H  0.43941574  0.00700545  0.19282557     0.38200
H236        H  0.42253303  0.98421526  0.21907080     0.33700
C237        C  0.50111294  0.40981908  0.13214569    -0.20000
C238        C  0.02066487  0.38929873  0.13049526     0.36200
C239        C  0.01645636  0.36388690  0.14721058    -0.26000
C240        C  0.49335215  0.35867386  0.16690009     0.02600
C241        C  0.47372253  0.37883930  0.17132840     0.27400
C242        C  0.47778966  0.40422992  0.15385802    -0.25100
N243        N  0.04517370  0.39500277  0.10992990    -0.82500
H244        H  0.03205368  0.34894882  0.14532698     0.13200
C245        C  0.49064792  0.33177502  0.18591980     0.02600
N246        N  0.44947935  0.37321998  0.19258407    -0.81100
H247        H  0.46215243  0.41914973  0.15529708     0.18100
C248        C  0.48878546  0.33005728  0.22768749    -0.25900
C249        C  0.49026185  0.30552324  0.24774886     0.36100
C250        C  0.49363627  0.28121397  0.22593779    -0.20000
C251        C  0.99255375  0.28168677  0.18244075    -0.25200
C252        C  0.99120096  0.30667270  0.16255294     0.27500
H253        H  0.48759918  0.34812710  0.24527187     0.13200
N254        N  0.49014671  0.30563737  0.29084668    -0.82500
H255        H  0.99288473  0.26386422  0.16447691     0.18100
N256        N  0.99142245  0.30808462  0.11938652    -0.81100
H257        H  0.47226526  0.31429940  0.30043027     0.33700
H258        H  0.50574583  0.31755679  0.30086448     0.38200
H259        H  0.99264914  0.28903649  0.10702947     0.33700
H260        H  0.97315170  0.31615919  0.11024325     0.30400
H261        H  0.43710964  0.39001793  0.19313976     0.33700
H262        H  0.43933217  0.35865488  0.17643953     0.30400
H263        H  0.05786353  0.37843838  0.11027338     0.38200
H264        H  0.05480459  0.40998578  0.12591251     0.33700
C265        C  0.50349174  0.10003901  0.12209243    -0.20000
C266        C  0.01334116  0.10029890  0.16086067     0.36200
C267        C  0.01502857  0.12514826  0.18075164    -0.26000
C268        C  0.50316299  0.14979269  0.16360386     0.02600
C269        C  0.50053755  0.14909330  0.12148060     0.27400
C270        C  0.50101590  0.12458019  0.10143683    -0.25100
N271        N  0.02223547  0.07643412  0.18066988    -0.82500
H272        H  0.02231143  0.12592216  0.21139013     0.13200
C273        C  0.50216149  0.17582252  0.18563246     0.02600
N274        N  0.49676717  0.17334633  0.09909002    -0.81100
H275        H  0.49888560  0.12490808  0.06904347     0.18100
C276        C  0.02261906  0.19615585  0.17294008    -0.25900
C277        C  0.02073417  0.22127157  0.19177371     0.36100
C278        C  0.49891351  0.22737632  0.22401258    -0.20000
C279        C  0.48306418  0.20515463  0.23595154    -0.25200
C280        C  0.48388834  0.18031240  0.21676142     0.27500
H281        H  0.03708505  0.19327227  0.14911728     0.13200
N282        N  0.03991223  0.24052130  0.17902059    -0.82500
H283        H  0.46999605  0.20628612  0.26160141     0.18100
N284        N  0.46608996  0.15952026  0.22905681    -0.81100
H285        H  0.03661899  0.24456883  0.14855672     0.33700
H286        H  0.03755776  0.25826021  0.19402717     0.38200
H287        H  0.45397803  0.16571069  0.25287456     0.33700
H288        H  0.45338271  0.15563794  0.20491137     0.30400
H289        H  0.49546230  0.16953370  0.06826148     0.33700
H290        H  0.47844379  0.18152259  0.10769073     0.30400
H291        H  0.03879367  0.06934527  0.16484490     0.38200
H292        H  0.02886777  0.08063970  0.20975120     0.33700
C293        C  0.09818349  0.42250051  0.02002196    -0.20000
C294        C  0.09607128  0.39440378  0.01793689     0.36200
C295        C  0.11732587  0.37849298  0.03053240    -0.26000
C296        C  0.14060373  0.38966807  0.04579449     0.02600
C297        C  0.14344377  0.41737897  0.04696594     0.27400
C298        C  0.12230343  0.43355879  0.03367847    -0.25100
N299        N  0.07280275  0.38121653  0.00342125    -0.82500
H300        H  0.11541245  0.35705724  0.02940494     0.13200
C301        C  0.16111987  0.37158638  0.06187719     0.02600
N302        N  0.16747793  0.42889739  0.06235423    -0.81100
H303        H  0.12440448  0.45492534  0.03558232     0.18100
C304        C  0.18286383  0.36469927  0.03767115    -0.25900
C305        C  0.19978740  0.34373352  0.04886137     0.36100
C306        C  0.19495183  0.32973045  0.08483627    -0.20000
C307        C  0.17411113  0.33763577  0.11018074    -0.25200
C308        C  0.15703774  0.35855726  0.09892900     0.27500
H309        H  0.18586251  0.37469105  0.00911299     0.13200
N310        N  0.22115719  0.33583989  0.02287197    -0.82500
H311        H  0.17065438  0.32683301  0.13791660     0.18100
N312        N  0.13491104  0.36600174  0.12400119    -0.81100
H313        H  0.23367148  0.35215012  0.01890767     0.33700
H314        H  0.21308827  0.33098162  0.99488380     0.38200
H315        H  0.13449845  0.35426186  0.14999612     0.33700
H316        H  0.13797498  0.38555228  0.13338239     0.30400
H317        H  0.16639812  0.44964259  0.06101301     0.33700
H318        H  0.16889836  0.42383411  0.09280881     0.30400
H319        H  0.06816340  0.38850264  0.97476428     0.38200
H320        H  0.05697648  0.38470805  0.02313496     0.33700
C321        C  0.42093879  0.40835603  0.02532828    -0.20000
C322        C  0.42530946  0.38129299  0.01611021     0.36200
C323        C  0.40727804  0.36209975  0.02983198    -0.26000
C324        C  0.38507028  0.36944473  0.05285364     0.02600
C325        C  0.38067996  0.39632089  0.06250145     0.27400
C326        C  0.39863007  0.41551636  0.04861466    -0.25100
N327        N  0.44766862  0.37324731  0.99220666    -0.82500
H328        H  0.41044368  0.34140773  0.02211314     0.13200
C329        C  0.36541098  0.34913633  0.06426561     0.02600
N330        N  0.35811444  0.40393394  0.08660656    -0.81100
H331        H  0.39536821  0.43614645  0.05660073     0.18100
C332        C  0.36709288  0.33659451  0.10196940    -0.25900
C333        C  0.34787777  0.31789854  0.11387942     0.36100
C334        C  0.32675649  0.31205160  0.08751077    -0.20000
C335        C  0.32528875  0.32452161  0.04983980    -0.25200
C336        C  0.34440053  0.34306775  0.03793962     0.27500
H337        H  0.38328501  0.34154818  0.12206849     0.13200
N338        N  0.34933863  0.30533383  0.15270372    -0.82500
H339        H  0.30902583  0.31976311  0.02974766     0.18100
N340        N  0.34264596  0.35575737  0.99920271    -0.81100
H341        H  0.36582831  0.31222590  0.16866707     0.33700
H342        H  0.35252031  0.28501720  0.14813892     0.38200
H343        H  0.32619904  0.34875537  0.98325931     0.33700
H344        H  0.33924663  0.37602547  0.00389746     0.30400
H345        H  0.35802829  0.42443362  0.09165755     0.33700
H346        H  0.34089591  0.39982059  0.07018983     0.30400
H347        H  0.45896411  0.35962860  0.00895342     0.38200
H348        H  0.44051452  0.36349298  0.96673001     0.33700
C349        C  0.41025592  0.08599268  0.00894788    -0.20000
C350        C  0.41461956  0.11370459  0.01193154     0.36200
C351        C  0.39399774  0.13038339  0.02520352    -0.26000
C352        C  0.36907641  0.12003066  0.03523133     0.02600
C353        C  0.36415202  0.09279259  0.03071506     0.27400
C354        C  0.38468721  0.07606108  0.01736008    -0.25100
N355        N  0.43986932  0.12507911  0.00201552    -0.82500
H356        H  0.39750665  0.15152709  0.02804467     0.13200
C357        C  0.34818799  0.13802910  0.05028050     0.02600
N358        N  0.33845389  0.08220779  0.04057744    -0.81100
H359        H  0.38082046  0.05497897  0.01507611     0.18100
C360        C  0.32640519  0.14398779  0.02549666    -0.25900
C361        C  0.30722646  0.16271287  0.03744944     0.36100
C362        C  0.30971464  0.17496510  0.07532089    -0.20000
C363        C  0.33082028  0.16799740  0.10091198    -0.25200
C364        C  0.35030556  0.14971203  0.08855686     0.27500
H365        H  0.32500751  0.13477769  0.99616042     0.13200
N366        N  0.28583017  0.17008894  0.01083460    -0.82500
H367        H  0.33264418  0.17776959  0.12976590     0.18100
N368        N  0.37255349  0.14340586  0.11414338    -0.81100
H369        H  0.28845816  0.18999588  0.00274521     0.33700
H370        H  0.28686529  0.15912030  0.98421965     0.38200
H371        H  0.37129232  0.15400621  0.14108133     0.33700
H372        H  0.37130434  0.12327318  0.12171769     0.30400
H373        H  0.33786882  0.06184208  0.03467087     0.33700
H374        H  0.33568996  0.08442336  0.07156142     0.30400
H375        H  0.44702572  0.13496570  0.02738421     0.38200
H376        H  0.43687057  0.13916086  0.97922847     0.33700
C377        C  0.17539206  0.19190939  0.07425552    -0.20000
C378        C  0.16967264  0.18713127  0.03327866     0.36200
C379        C  0.14982024  0.16907712  0.02287653    -0.26000
C380        C  0.13613474  0.15478116  0.05251563     0.02600
C381        C  0.14205190  0.15917435  0.09339388     0.27400
C382        C  0.16131882  0.17801315  0.10400332    -0.25100
N383        N  0.18446897  0.19958365  0.00165258    -0.82500
H384        H  0.14578801  0.16537006  0.99137422     0.13200
C385        C  0.11728644  0.13384085  0.04005792     0.02600
N386        N  0.12867699  0.14434118  0.12408415    -0.81100
H387        H  0.16585300  0.18127440  0.13545606     0.18100
C388        C  0.12306561  0.10731786  0.04973341    -0.25900
C389        C  0.10608329  0.08679980  0.03794192     0.36100
C390        C  0.08295038  0.09272229  0.01520629    -0.20000
C391        C  0.07716823  0.11940375  0.00575314    -0.25200
C392        C  0.09412446  0.13992169  0.01794370     0.27500
H393        H  0.14083517  0.10250386  0.06684659     0.13200
N394        N  0.11188998  0.06015985  0.05073851    -0.82500
H395        H  0.05922356  0.12446945  0.98933934     0.18100
N396        N  0.08742421  0.16697386  0.00874271    -0.81100
H397        H  0.13075179  0.05488909  0.03996902     0.33700
H398        H  0.11258712  0.05988606  0.08217474     0.38200
H399        H  0.08580657  0.16880046  0.97750466     0.33700
H400        H  0.06874087  0.17110990  0.02121993     0.30400
H401        H  0.14306604  0.13397608  0.14073626     0.33700
H402        H  0.11918339  0.15779700  0.14331008     0.30400
H403        H  0.18214345  0.22015836  0.00389711     0.38200
H404        H  0.20461694  0.19486849  0.00550600     0.33700
C405        C  0.40778681  0.99953922  0.87171854    -0.20000
C406        C  0.38629669  0.01683708  0.88140845     0.36200
C407        C  0.36167508  0.01459213  0.86131071    -0.26000
C408        C  0.35661687  0.49489258  0.83257784     0.02600
C409        C  0.37794332  0.47798012  0.82089939     0.27400
C410        C  0.40297361  0.47978765  0.84048399    -0.25100
N411        N  0.38953560  0.03664517  0.91208995    -0.82500
H412        H  0.34536820  0.02774312  0.86938828     0.13200
C413        C  0.32981992  0.49425019  0.81250450     0.02600
N414        N  0.37386226  0.45854831  0.78999242    -0.81100
H415        H  0.41890956  0.46614026  0.83261685     0.18100
C416        C  0.32835816  0.99890709  0.76979967    -0.25900
C417        C  0.30341614  0.99975387  0.75045321     0.36100
C418        C  0.27911695  0.99591274  0.77228206    -0.20000
C419        C  0.28119205  0.49000143  0.81418887    -0.25200
C420        C  0.30616743  0.48905507  0.83405453     0.27500
H421        H  0.34615577  0.00268084  0.75231242     0.13200
N422        N  0.30296974  0.00527049  0.70816333    -0.82500
H423        H  0.26399344  0.48400559  0.83114407     0.18100
N424        N  0.30761405  0.48256638  0.87613864    -0.81100
H425        H  0.31194015  0.02369173  0.70328926     0.33700
H426        H  0.31437138  0.99075244  0.69357099     0.38200
H427        H  0.28858515  0.47954491  0.88797290     0.33700
H428        H  0.31790833  0.46452054  0.87888072     0.30400
H429        H  0.39132265  0.44760216  0.78502631     0.33700
H430        H  0.35965959  0.44512779  0.80054200     0.30400
H431        H  0.40403982  0.04993748  0.90212520     0.38200
H432        H  0.37200437  0.04769234  0.91585833     0.33700
C433        C  0.09358741  0.99801873  0.86749047    -0.20000
C434        C  0.11641628  0.48002551  0.88259954     0.36200
C435        C  0.14116627  0.48126998  0.86268520    -0.26000
C436        C  0.14415695  0.00118267  0.82776715     0.02600
C437        C  0.12166140  0.01517885  0.81241903     0.27400
C438        C  0.09670006  0.01371538  0.83267834    -0.25100
N439        N  0.11238350  0.46086181  0.91417844    -0.82500
H440        H  0.15705796  0.46770656  0.87122061     0.13200
C441        C  0.17141141  0.00228383  0.80844073     0.02600
N442        N  0.12432446  0.03108678  0.77669714    -0.81100
H443        H  0.08001740  0.02561274  0.82219164     0.18100
C444        C  0.17509764  0.49237662  0.77295575    -0.25900
C445        C  0.19974988  0.49156494  0.75292760     0.36100
C446        C  0.22369515  0.99791557  0.77157344    -0.20000
C447        C  0.21988191  0.00982739  0.80969835    -0.25200
C448        C  0.19448204  0.01197776  0.82825112     0.27500
H449        H  0.15739160  0.48606689  0.75708641     0.13200
N450        N  0.19976021  0.48317986  0.71181681    -0.82500
H451        H  0.23646964  0.01841513  0.82536572     0.18100
N452        N  0.19298250  0.02467544  0.86688505    -0.81100
H453        H  0.19209825  0.46393578  0.71055250     0.33700
H454        H  0.18700757  0.49574500  0.69556653     0.38200
H455        H  0.19973818  0.04414508  0.86328769     0.33700
H456        H  0.17337354  0.02632332  0.87695760     0.30400
H457        H  0.10608657  0.03991378  0.76911178     0.33700
H458        H  0.13744359  0.04652379  0.78316023     0.30400
H459        H  0.09744731  0.44792830  0.90475061     0.38200
H460        H  0.12952245  0.44929964  0.91858975     0.33700
C461        C  0.49922349  0.09066285  0.86479779    -0.20000
C462        C  0.52095622  0.10820553  0.86578340     0.36200
C463        C  0.51906884  0.13330603  0.84739243    -0.26000
C464        C  0.99365447  0.14341833  0.83053733     0.02600
C465        C  0.97560109  0.12291122  0.82055846     0.27400
C466        C  0.97831713  0.09752409  0.83865709    -0.25100
N467        N  0.54477128  0.10083159  0.88689838    -0.82500
H468        H  0.53595414  0.14655856  0.84869122     0.13200
C469        C  0.99194421  0.17050935  0.81195336     0.02600
N470        N  0.95412683  0.12819409  0.79305378    -0.81100
H471        H  0.96367336  0.08231872  0.83279988     0.18100
C472        C  0.99266610  0.17264265  0.77019276    -0.25900
C473        C  0.99329954  0.19738687  0.75094383     0.36100
C474        C  0.49502045  0.22067578  0.77387460    -0.20000
C475        C  0.49819381  0.21756982  0.81582828    -0.25200
C476        C  0.49801865  0.19213082  0.83425878     0.27500
H477        H  0.99361202  0.15478788  0.75208348     0.13200
N478        N  0.99495929  0.19775319  0.70792115    -0.82500
H479        H  0.50062441  0.23485947  0.83457868     0.18100
N480        N  0.50158961  0.18955611  0.87697356    -0.81100
H481        H  0.01190152  0.18700456  0.69925485     0.33700
H482        H  0.97827323  0.18805708  0.69645619     0.38200
H483        H  0.50426950  0.20818863  0.89010973     0.33700
H484        H  0.48398658  0.18186246  0.88891819     0.30400
H485        H  0.94264938  0.11117029  0.78893728     0.33700
H486        H  0.94168507  0.14244967  0.80624569     0.30400
H487        H  0.54809039  0.11490640  0.90937990     0.38200
H488        H  0.56066625  0.10163466  0.86663989     0.33700
C489        C  0.49810760  0.27371823  0.78046019    -0.20000
C490        C  0.52219863  0.28006003  0.80091774     0.36200
C491        C  0.52594660  0.30550848  0.81814695    -0.26000
C492        C  0.50552834  0.32488705  0.81897846     0.02600
C493        C  0.98482357  0.32178405  0.78950597     0.27400
C494        C  0.98179233  0.29732723  0.76973078    -0.25100
N495        N  0.54354715  0.26111854  0.80317062    -0.82500
H496        H  0.54530382  0.31010760  0.83046278     0.13200
C497        C  0.50967917  0.35208289  0.83755524     0.02600
N498        N  0.96678624  0.34320622  0.78072006    -0.81100
H499        H  0.96675084  0.29691774  0.74658772     0.18100
C500        C  0.01106127  0.37540734  0.81800871    -0.25900
C501        C  0.01099175  0.40057484  0.83740820     0.36100
C502        C  0.51130806  0.40310694  0.87605673    -0.20000
C503        C  0.52332834  0.38034314  0.89339520    -0.25200
C504        C  0.52239590  0.35520237  0.87507623     0.27500
H505        H  0.01301371  0.37452654  0.78559317     0.13200
N506        N  0.01404943  0.42445326  0.81413583    -0.82500
H507        H  0.53268042  0.38171177  0.92262422     0.18100
N508        N  0.53341331  0.33272718  0.89591493    -0.81100
H509        H  0.01734441  0.41987639  0.78388126     0.33700
H510        H  0.99594351  0.43479760  0.81519493     0.38200
H511        H  0.55362745  0.33632450  0.90089198     0.33700
H512        H  0.52404806  0.33121138  0.92389976     0.30400
H513        H  0.96800530  0.34741631  0.74996496     0.33700
H514        H  0.94746494  0.33678554  0.78694535     0.30400
H515        H  0.54792366  0.25776402  0.83351147     0.38200
H516        H  0.56033538  0.26948700  0.78966973     0.33700
C517        C  0.33801541  0.25494860  0.63624725    -0.20000
C518        C  0.35508651  0.27704716  0.63610016     0.36200
C519        C  0.38013579  0.27554980  0.65503320    -0.26000
C520        C  0.38866234  0.25222902  0.67460199     0.02600
C521        C  0.37085164  0.23056214  0.67711713     0.27400
C522        C  0.34573316  0.23212768  0.65784177    -0.25100
N523        N  0.34707855  0.30102301  0.61605526    -0.82500
H524        H  0.39316782  0.29260322  0.65394560     0.13200
C525        C  0.41605248  0.25091765  0.69270629     0.02600
N526        N  0.37870714  0.20673202  0.69805719    -0.81100
H527        H  0.33282555  0.21496987  0.65772668     0.18100
C528        C  0.41869277  0.24655492  0.73396278    -0.25900
C529        C  0.44374622  0.24563114  0.75260302     0.36100
C530        C  0.46775507  0.24942449  0.72997301    -0.20000
C531        C  0.46484992  0.25271671  0.68793875    -0.25200
C532        C  0.43940805  0.25380631  0.66934076     0.27500
H533        H  0.40098767  0.24419419  0.75224018     0.13200
N534        N  0.44461879  0.24154920  0.79528368    -0.82500
H535        H  0.48227880  0.25387917  0.66908163     0.18100
N536        N  0.43719891  0.25744329  0.62658357    -0.81100
H537        H  0.43339526  0.25652632  0.80910571     0.33700
H538        H  0.43566190  0.22332516  0.80171945     0.38200
H539        H  0.45603857  0.25928621  0.61354807     0.33700
H540        H  0.42878614  0.24022554  0.61469466     0.30400
H541        H  0.36346977  0.19270329  0.69719326     0.33700
H542        H  0.39490345  0.19846514  0.68266564     0.30400
H543        H  0.34707349  0.31638240  0.63715158     0.38200
H544        H  0.36138977  0.30537368  0.59430117     0.33700
C545        C  0.02305545  0.24868157  0.72593586    -0.20000
C546        C  0.02968607  0.26914776  0.69818677     0.36200
C547        C  0.05465663  0.26909158  0.67852958    -0.26000
C548        C  0.07394810  0.24927126  0.68604787     0.02600
C549        C  0.06806908  0.22928588  0.71418305     0.27400
C550        C  0.04356072  0.22976260  0.73452150    -0.25100
N551        N  0.01140909  0.29050850  0.69039521    -0.82500
H552        H  0.05911691  0.28491847  0.65746227     0.13200
C553        C  0.10007010  0.24929260  0.66409312     0.02600
N554        N  0.08704014  0.20832751  0.72198311    -0.81100
H555        H  0.04119464  0.21516762  0.75804261     0.18100
C556        C  0.12434881  0.24852629  0.68545938    -0.25900
C557        C  0.14927334  0.24729261  0.66546683     0.36100
C558        C  0.15008640  0.24733968  0.62294236    -0.20000
C559        C  0.12550418  0.24825646  0.60198217    -0.25200
C560        C  0.10083385  0.24897336  0.62182753     0.27500
H561        H  0.12382090  0.24871944  0.71802522     0.13200
N562        N  0.17351187  0.24592810  0.68831342    -0.82500
H563        H  0.12522255  0.24827292  0.56943161     0.18100
N564        N  0.07647576  0.24898192  0.59904477    -0.81100
H565        H  0.16942959  0.24675842  0.71912236     0.33700
H566        H  0.18216290  0.22729510  0.68308597     0.38200
H567        H  0.08040029  0.24903940  0.56815695     0.33700
H568        H  0.06663821  0.23120380  0.60532080     0.30400
H569        H  0.07989288  0.19518080  0.74380540     0.33700
H570        H  0.08915208  0.19734594  0.69551576     0.30400
H571        H  0.00752795  0.29105120  0.65951083     0.38200
H572        H  0.02069708  0.30829644  0.69815305     0.33700
C573        C  0.25118561  0.02542212  0.72661063    -0.20000
C574        C  0.25914567  0.04914368  0.74732790     0.36200
C575        C  0.25759167  0.07429285  0.72881809    -0.26000
C576        C  0.24776642  0.07762279  0.68997383     0.02600
C577        C  0.23855547  0.05490662  0.66941099     0.27400
C578        C  0.23971471  0.02942830  0.68810533    -0.25100
N579        N  0.26902425  0.04822655  0.78771651    -0.82500
H580        H  0.26456270  0.09152842  0.74509237     0.13200
C581        C  0.24892320  0.10473423  0.67063307     0.02600
N582        N  0.22779817  0.05783414  0.62958843    -0.81100
H583        H  0.23096641  0.01297930  0.67241578     0.18100
C584        C  0.26655095  0.10864044  0.63859337    -0.25900
C585        C  0.26910415  0.13360143  0.61968973     0.36100
C586        C  0.25259885  0.15528691  0.63135819    -0.20000
C587        C  0.23598043  0.15191762  0.66506868    -0.25200
C588        C  0.23431569  0.12696713  0.68519847     0.27500
H589        H  0.27874610  0.09208417  0.62858715     0.13200
N590        N  0.28852862  0.13704345  0.58833337    -0.82500
H591        H  0.22356645  0.16838321  0.67476595     0.18100
N592        N  0.21760718  0.12403857  0.71998631    -0.81100
H593        H  0.30236073  0.15095514  0.59840662     0.33700
H594        H  0.29910787  0.11939115  0.58332640     0.38200
H595        H  0.20842654  0.14213421  0.72711776     0.33700
H596        H  0.20242888  0.11081857  0.71261200     0.30400
H597        H  0.22199311  0.03941601  0.61823531     0.33700
H598        H  0.21055171  0.06950443  0.63173320     0.30400
H599        H  0.28833688  0.05586320  0.78780191     0.38200
H600        H  0.25707946  0.06057325  0.80552262     0.33700
C601        C  0.24485903  0.34420549  0.62677451    -0.20000
C602        C  0.22813258  0.36607883  0.61673841     0.36200
C603        C  0.23156130  0.39077567  0.63582806    -0.26000
C604        C  0.25137981  0.39448214  0.66488744     0.02600
C605        C  0.26777289  0.37254154  0.67572335     0.27400
C606        C  0.26422881  0.34760157  0.65677770    -0.25100
N607        N  0.20788343  0.36319043  0.58649635    -0.82500
H608        H  0.21859871  0.40731286  0.62803122     0.13200
C609        C  0.25355522  0.42105080  0.68512257     0.02600
N610        N  0.28845669  0.37589076  0.70508917    -0.81100
H611        H  0.27752000  0.33120140  0.66392989     0.18100
C612        C  0.24945220  0.42260352  0.72652916    -0.25900
C613        C  0.24886617  0.44708227  0.74668275     0.36100
C614        C  0.25280819  0.47159491  0.72560982    -0.20000
C615        C  0.25893784  0.46951278  0.68412558    -0.25200
C616        C  0.25834989  0.44483004  0.66361269     0.27500
H617        H  0.24576504  0.40455776  0.74346799     0.13200
N618        N  0.24360728  0.44677273  0.78899968    -0.82500
H619        H  0.26479528  0.48680333  0.66723617     0.18100
N620        N  0.26263098  0.44384214  0.62090199    -0.81100
H621        H  0.22513354  0.43783833  0.79372115     0.33700
H622        H  0.25818377  0.43504034  0.80301609     0.38200
H623        H  0.26544915  0.46293467  0.60922996     0.33700
H624        H  0.28026921  0.43321745  0.61585528     0.30400
H625        H  0.29882996  0.35803558  0.70957589     0.33700
H626        H  0.30212317  0.38942535  0.69330886     0.30400
H627        H  0.19411340  0.34937507  0.59717342     0.38200
H628        H  0.19748592  0.38105219  0.58219988     0.33700
C629        C  0.43503727  0.07153978  0.43388913    -0.20000
C630        C  0.42542522  0.06915972  0.47376277     0.36200
C631        C  0.40810552  0.08852855  0.48851932    -0.26000
C632        C  0.40005979  0.10992187  0.46439476     0.02600
C633        C  0.40972696  0.11245629  0.42475904     0.27400
C634        C  0.42737314  0.09318272  0.40990030    -0.25100
N635        N  0.43297875  0.04769545  0.50020689    -0.82500
H636        H  0.40072540  0.08682945  0.51905951     0.13200
C637        C  0.38067088  0.12902136  0.48059314     0.02600
N638        N  0.40132244  0.13435857  0.39980103    -0.81100
H639        H  0.43498734  0.09480259  0.37949517     0.18100
C640        C  0.38796635  0.15562114  0.48466350    -0.25900
C641        C  0.36928769  0.17484775  0.49649680     0.36100
C642        C  0.34250708  0.16716138  0.50296079    -0.20000
C643        C  0.33607465  0.14000971  0.50238151    -0.25200
C644        C  0.35485789  0.12086482  0.49100856     0.27500
H645        H  0.40821950  0.16140927  0.47784155     0.13200
N646        N  0.37734762  0.20207007  0.50060112    -0.82500
H647        H  0.31593849  0.13369777  0.50871909     0.18100
N648        N  0.34757810  0.09332598  0.48850099    -0.81100
H649        H  0.39743860  0.20427672  0.49315073     0.33700
H650        H  0.37561209  0.20701621  0.53101602     0.38200
H651        H  0.32786389  0.09064666  0.49767623     0.33700
H652        H  0.34850240  0.08780896  0.45824286     0.30400
H653        H  0.41042915  0.13331655  0.37156116     0.33700
H654        H  0.38085308  0.13250586  0.39494509     0.30400
H655        H  0.44665118  0.03471404  0.48697840     0.38200
H656        H  0.41587660  0.03666338  0.50629660     0.33700
C657        C  0.06963247  0.05840976  0.43608919    -0.20000
C658        C  0.07981122  0.05828001  0.47586363     0.36200
C659        C  0.09920513  0.07686514  0.48653984    -0.26000
C660        C  0.10871468  0.09529077  0.45842743     0.02600
C661        C  0.09922234  0.09488069  0.41856717     0.27400
C662        C  0.07961418  0.07648347  0.40783240    -0.25100
N663        N  0.07094685  0.03979941  0.50605576    -0.82500
H664        H  0.10677810  0.07707519  0.51706029     0.13200
C665        C  0.12836368  0.11530757  0.47099497     0.02600
N666        N  0.10970116  0.11304129  0.38917898    -0.81100
H667        H  0.07182663  0.07637425  0.37743844     0.18100
C668        C  0.15552859  0.10964193  0.46694091    -0.25900
C669        C  0.17472187  0.12900840  0.47517572     0.36100
C670        C  0.16661330  0.15467717  0.48794425    -0.20000
C671        C  0.13923271  0.15986284  0.49311174    -0.25200
C672        C  0.12005893  0.14045265  0.48475548     0.27500
H673        H  0.16184824  0.09024934  0.45633870     0.13200
N674        N  0.20228784  0.12263120  0.46922318    -0.82500
H675        H  0.13264630  0.17927011  0.50320494     0.18100
N676        N  0.09218508  0.14615343  0.49012392    -0.81100
H677        H  0.20492137  0.11689930  0.43927204     0.33700
H678        H  0.20709617  0.10637992  0.48758045     0.38200
H679        H  0.08942024  0.16544924  0.50099729     0.33700
H680        H  0.08308344  0.14560086  0.46188155     0.30400
H681        H  0.10097031  0.10980529  0.36109294     0.33700
H682        H  0.10427107  0.13229159  0.39774959     0.30400
H683        H  0.05697582  0.02651599  0.49479028     0.38200
H684        H  0.06139386  0.05072457  0.52859493     0.33700
C685        C  0.06233143  0.42549969  0.41844602    -0.20000
C686        C  0.07145921  0.42732882  0.45851580     0.36200
C687        C  0.08823288  0.40770622  0.47380461    -0.26000
C688        C  0.09586501  0.38616183  0.44999050     0.02600
C689        C  0.08635075  0.38375276  0.41030980     0.27400
C690        C  0.06951117  0.40363363  0.39474872    -0.25100
N691        N  0.06368150  0.44874136  0.48439794    -0.82500
H692        H  0.09570151  0.40941653  0.50427374     0.13200
C693        C  0.11610229  0.36787761  0.46572632     0.02600
N694        N  0.09392476  0.36126769  0.38619918    -0.81100
H695        H  0.06187792  0.40211981  0.36437086     0.18100
C696        C  0.10876687  0.34269561  0.47945835    -0.25900
C697        C  0.12815291  0.32459773  0.49307374     0.36100
C698        C  0.15536131  0.33169118  0.49082656    -0.20000
C699        C  0.16219289  0.35775687  0.47970789    -0.25200
C700        C  0.14275000  0.37595265  0.46736090     0.27500
H701        H  0.08793508  0.33723740  0.47948639     0.13200
N702        N  0.12031243  0.29922044  0.50897638    -0.82500
H703        H  0.18285333  0.36375472  0.47886451     0.18100
N704        N  0.14989268  0.40252305  0.45580059    -0.81100
H705        H  0.09960693  0.29727190  0.50828017     0.33700
H706        H  0.12582913  0.29871737  0.53930542     0.38200
H707        H  0.17016006  0.40575176  0.46068976     0.33700
H708        H  0.14653573  0.40445819  0.42488903     0.30400
H709        H  0.08492110  0.36239711  0.35788540     0.33700
H710        H  0.11446452  0.36222609  0.38137350     0.30400
H711        H  0.04290972  0.44917469  0.48632686     0.38200
H712        H  0.07009570  0.46660915  0.47173998     0.33700
C713        C  0.42219570  0.43929396  0.41618263    -0.20000
C714        C  0.40980878  0.42009382  0.39168669     0.36200
C715        C  0.39065148  0.40337670  0.40869676    -0.26000
C716        C  0.38410942  0.40496546  0.44962031     0.02600
C717        C  0.39637799  0.42419379  0.47394747     0.27400
C718        C  0.41507331  0.44131694  0.45694447    -0.25100
N719        N  0.41631566  0.41678905  0.34989197    -0.82500
H720        H  0.38124938  0.38851869  0.39004689     0.13200
C721        C  0.36533643  0.38538414  0.46628352     0.02600
N722        N  0.39047399  0.42644193  0.51594858    -0.81100
H723        H  0.42484240  0.45574910  0.47594503     0.18100
C724        C  0.37535332  0.36184111  0.48309612    -0.25900
C725        C  0.35828777  0.34098855  0.49371106     0.36100
C726        C  0.33048337  0.34375215  0.48777561    -0.20000
C727        C  0.32057899  0.36800338  0.47220488    -0.25200
C728        C  0.33778922  0.38865455  0.46130687     0.27500
H729        H  0.39666586  0.35928101  0.48674080     0.13200
N730        N  0.36948877  0.31698105  0.50982738    -0.82500
H731        H  0.29943987  0.37071863  0.46698455     0.18100
N732        N  0.32734300  0.41268576  0.44412429    -0.81100
H733        H  0.38064975  0.32192794  0.53520872     0.33700
H734        H  0.38260997  0.30911612  0.48846807     0.38200
H735        H  0.31686336  0.40768956  0.41812269     0.33700
H736        H  0.31385190  0.42096772  0.46457938     0.30400
H737        H  0.37005077  0.43000546  0.51908432     0.33700
H738        H  0.39503906  0.40831476  0.52986055     0.30400
H739        H  0.43040424  0.43057085  0.34031411     0.38200
H740        H  0.42498510  0.39796579  0.34660894     0.33700
C741        C  0.15527358  0.24768634  0.36918985    -0.20000
C742        C  0.13869282  0.27048669  0.36988958     0.36200
C743        C  0.11299297  0.26970594  0.35277620    -0.26000
C744        C  0.10290332  0.24654875  0.33482062     0.02600
C745        C  0.11971535  0.22383004  0.33351823     0.27400
C746        C  0.14551630  0.22451919  0.35090526    -0.25100
N747        N  0.14774664  0.29419742  0.38950119    -0.82500
H748        H  0.10051583  0.28734378  0.35394869     0.13200
C749        C  0.07580849  0.24785529  0.31483303     0.02600
N750        N  0.11084919  0.20007066  0.31431527    -0.81100
H751        H  0.15758909  0.20658556  0.35133750     0.18100
C752        C  0.07063760  0.26889151  0.28846168    -0.25900
C753        C  0.04603692  0.27236148  0.26886032     0.36100
C754        C  0.02464503  0.25366707  0.27453449    -0.20000
C755        C  0.03025410  0.23247349  0.30170332    -0.25200
C756        C  0.05490459  0.22990295  0.32242619     0.27500
H757        H  0.08631796  0.28303583  0.28231100     0.13200
N758        N  0.04416662  0.29476269  0.24226370    -0.82500
H759        H  0.01526513  0.21750500  0.30695251     0.18100
N760        N  0.05820864  0.20944342  0.35204953    -0.81100
H761        H  0.05952769  0.29358951  0.22108445     0.33700
H762        H  0.04717713  0.31200171  0.25909463     0.38200
H763        H  0.04356557  0.21215261  0.37404864     0.33700
H764        H  0.05484749  0.19114887  0.33821848     0.30400
H765        H  0.12429802  0.19542419  0.29134849     0.33700
H766        H  0.11152145  0.18466237  0.33548737     0.30400
H767        H  0.16414261  0.30123528  0.37339857     0.38200
H768        H  0.13315927  0.30911226  0.38826650     0.33700
C769        C  0.34356439  0.24500642  0.37539954    -0.20000
C770        C  0.36337007  0.22526736  0.38161148     0.36200
C771        C  0.38825179  0.22746457  0.36217587    -0.26000
C772        C  0.39369338  0.24882101  0.33620523     0.02600
C773        C  0.37332688  0.26775205  0.32840658     0.27400
C774        C  0.34849093  0.26558587  0.34796993    -0.25100
N775        N  0.35813204  0.20315404  0.40786267    -0.82500
H776        H  0.40348134  0.21245917  0.36725566     0.13200
C777        C  0.42029703  0.25058515  0.31594353     0.02600
N778        N  0.37822424  0.28957686  0.30147973    -0.81100
H779        H  0.33341698  0.28081891  0.34342712     0.18100
C780        C  0.42127440  0.25051960  0.27401196    -0.25900
C781        C  0.44545649  0.25220855  0.25320615     0.36100
C782        C  0.47025213  0.25340029  0.27427865    -0.20000
C783        C  0.46902863  0.25382724  0.31680718    -0.25200
C784        C  0.44441043  0.25261893  0.33764308     0.27500
H785        H  0.40294760  0.24892542  0.25700059     0.13200
N786        N  0.44476119  0.25176468  0.21011732    -0.82500
H787        H  0.48706279  0.25589146  0.33413641     0.18100
N788        N  0.44376606  0.25392732  0.38079977    -0.81100
H789        H  0.43543366  0.23427192  0.20103464     0.33700
H790        H  0.43316770  0.26785065  0.20023874     0.38200
H791        H  0.46303675  0.25550112  0.39238523     0.33700
H792        H  0.43369133  0.27141180  0.38866281     0.30400
H793        H  0.36129321  0.30167067  0.29885853     0.33700
H794        H  0.39309609  0.30125476  0.31428988     0.30400
H795        H  0.34252470  0.19232187  0.39531731     0.38200
H796        H  0.37458730  0.19032083  0.40896758     0.33700
C797        C  0.24330154  0.34342195  0.37088745    -0.20000
C798        C  0.26080768  0.34837601  0.33842832     0.36200
C799        C  0.26121876  0.37398538  0.32016471    -0.26000
C800        C  0.24464133  0.39486864  0.33380805     0.02600
C801        C  0.22666630  0.38955029  0.36538928     0.27400
C802        C  0.22604645  0.36409924  0.38310632    -0.25100
N803        N  0.27863211  0.32781308  0.32492547    -0.82500
H804        H  0.27481411  0.37781292  0.29555936     0.13200
C805        C  0.24583899  0.42219051  0.31507267     0.02600
N806        N  0.20955995  0.41032676  0.38027829    -0.81100
H807        H  0.21251986  0.36063988  0.40795989     0.18100
C808        C  0.22262564  0.43370353  0.29920617    -0.25900
C809        C  0.22241945  0.45930135  0.28188939     0.36100
C810        C  0.24667437  0.47383959  0.27735468    -0.20000
C811        C  0.26890006  0.46361119  0.29884185    -0.25200
C812        C  0.26910018  0.43774856  0.31590612     0.27500
H813        H  0.20413598  0.42277345  0.30067618     0.13200
N814        N  0.19703788  0.47062147  0.27171250    -0.82500
H815        H  0.28702608  0.47512930  0.29957406     0.18100
N816        N  0.29293873  0.42719780  0.33390621    -0.81100
H817        H  0.18749906  0.45779449  0.25177125     0.33700
H818        H  0.18548015  0.47142759  0.29784888     0.38200
H819        H  0.30845601  0.44085933  0.33168717     0.33700
H820        H  0.28911339  0.42458265  0.36454408     0.30400
H821        H  0.19737562  0.40315930  0.40325383     0.33700
H822        H  0.22164638  0.42485486  0.39308753     0.30400
H823        H  0.29196433  0.32368704  0.34831134     0.38200
H824        H  0.29002550  0.33455079  0.30067676     0.33700
C825        C  0.26004659  0.15535823  0.37384475    -0.20000
C826        C  0.27865825  0.13532192  0.38449541     0.36200
C827        C  0.27733228  0.11000724  0.36691643    -0.26000
C828        C  0.25813945  0.10405686  0.33767733     0.02600
C829        C  0.24061802  0.12459484  0.32479543     0.27400
C830        C  0.24160974  0.14997875  0.34319539    -0.25100
N831        N  0.29885758  0.14056939  0.41379940    -0.82500
H832        H  0.29123521  0.09473721  0.37669585     0.13200
C833        C  0.25738494  0.07657992  0.31993446     0.02600
N834        N  0.22176370  0.11952122  0.29330507    -0.81100
H835        H  0.22721751  0.16516060  0.33485414     0.18100
C836        C  0.23435072  0.06095391  0.32283428    -0.25900
C837        C  0.23282328  0.03569726  0.30428406     0.36100
C838        C  0.25398402  0.02628689  0.27949827    -0.20000
C839        C  0.27838869  0.04017509  0.28319016    -0.25200
C840        C  0.28004878  0.06532334  0.30151643     0.27500
H841        H  0.21734700  0.06844397  0.33947433     0.13200
N842        N  0.20932258  0.02016789  0.30964839    -0.82500
H843        H  0.29653998  0.03196332  0.27092130     0.18100
N844        N  0.30468628  0.07971152  0.30069937    -0.81100
H845        H  0.19286982  0.03157211  0.30066870     0.33700
H846        H  0.20725612  0.01618817  0.34036206     0.38200
H847        H  0.31958577  0.06871641  0.28624171     0.33700
H848        H  0.30162929  0.09686405  0.28342654     0.30400
H849        H  0.21040779  0.13656411  0.28723714     0.33700
H850        H  0.23255342  0.11535424  0.26714673     0.30400
H851        H  0.29675061  0.12688686  0.43728720     0.38200
H852        H  0.31743030  0.13729505  0.40040602     0.33700
O853        O  0.25521120  0.70323138  0.37978622    -0.80300
O854        O  0.24925187  0.70123962  0.61252879    -0.81800
O855        O  0.29810135  0.67679233  0.49782386    -0.78900
O856        O  0.21331761  0.67063058  0.48897687    -0.77200
O857        O  0.17851797  0.69990468  0.48795894    -0.79000
O858        O  0.32823616  0.71017074  0.49969400    -0.80000
O859        O  0.25255351  0.67252563  0.55948874    -0.81300
O860        O  0.25775105  0.67353289  0.43217801    -0.81600
Eu861      Eu  0.25370620  0.69644368  0.49599898     2.39200
O862        O  0.22430524  0.71975822  0.53829819    -0.89100
O863        O  0.27921927  0.72449998  0.45513766    -0.92700
C864        C  0.25755053  0.67920295  0.39444586     1.02000
C865        C  0.25128760  0.67742045  0.59738516     1.01800
C866        C  0.32213879  0.68542042  0.49893421     1.01800
C867        C  0.18842566  0.67619826  0.48551103     0.99600
H868        H  0.28907824  0.71260650  0.55654918     0.29400
O869        O  0.27747974  0.72356730  0.54029619    -1.01500
H870        H  0.21648873  0.70946185  0.43489668     0.29400
O871        O  0.22661681  0.72115528  0.45193195    -1.04000
O872        O  0.24852079  0.79395859  0.61385697    -0.81200
O873        O  0.25163178  0.79658865  0.38078902    -0.80800
O874        O  0.32460854  0.75276468  0.56467437    -0.79200
O875        O  0.17293070  0.74474627  0.55703172    -0.82600
O876        O  0.17527400  0.74683039  0.42933126    -0.80400
O877        O  0.32816022  0.75051926  0.43639038    -0.79100
O878        O  0.28863411  0.82610162  0.49704453    -0.80600
O879        O  0.20270414  0.82015310  0.49196996    -0.82500
O880        O  0.32271223  0.79614158  0.49779749    -0.79300
O881        O  0.17287992  0.78642540  0.48940822    -0.81900
O882        O  0.29394328  0.74867790  0.61545318    -0.77700
O883        O  0.29928272  0.75052678  0.38287860    -0.77700
O884        O  0.20598762  0.74939777  0.37832923    -0.77300
O885        O  0.20072700  0.74796606  0.61110824    -0.80800
O886        O  0.24613191  0.82418991  0.56216281    -0.80300
O887        O  0.24721179  0.82533286  0.43378967    -0.78600
Eu888      Eu  0.24816747  0.74784416  0.58308983     2.39800
Eu889      Eu  0.25216756  0.74961566  0.41010635     2.39600
Eu890      Eu  0.30307466  0.75174932  0.49923853     2.38400
Eu891      Eu  0.19765067  0.74483133  0.49413149     2.39900
Eu892      Eu  0.24722432  0.80109243  0.49755065     2.39800
O893        O  0.22349924  0.77332141  0.45403311    -0.93000
O894        O  0.27421118  0.77601176  0.54115278    -0.91900
C895        C  0.24731368  0.81819139  0.59984245     1.02200
C896        C  0.24925251  0.82043868  0.39589718     1.00900
C897        C  0.31823188  0.75118156  0.60209267     1.00300
C898        C  0.17696145  0.74669652  0.59514840     1.02300
C899        C  0.18159755  0.74860688  0.39193334     1.01200
C900        C  0.32312564  0.75022031  0.39841394     1.00100
C901        C  0.31358183  0.82010179  0.49618172     1.00100
C902        C  0.17888405  0.81119714  0.48841593     1.02700
H903        H  0.28714417  0.78883595  0.44008746     0.30100
O904        O  0.27614863  0.77694248  0.45547611    -1.05200
H905        H  0.20877768  0.78393134  0.55326765     0.32100
O906        O  0.22112761  0.77304367  0.53806756    -1.07700
N907        N  0.49108214  0.95871348  0.39784616    -0.36800
N908        N  0.45814583  0.50194769  0.40188863    -0.57300
N909        N  0.50257191  0.53900366  0.40740871    -0.36800
N910        N  0.03995542  0.49348719  0.39966463    -0.57300
C911        C  0.46777116  0.94626748  0.40521963     0.26800
C912        C  0.01400398  0.94058358  0.41367613     0.26800
C913        C  0.48241316  0.55396528  0.42211105     0.26800
C914        C  0.02788596  0.54906686  0.42074028     0.26800
C915        C  0.43727463  0.98524528  0.39772457     0.35400
C916        C  0.44476245  0.52522178  0.40140912     0.35400
C917        C  0.05066562  0.97263928  0.40277555     0.35400
C918        C  0.05793375  0.51317882  0.39648493     0.35400
C919        C  0.47283049  0.92022802  0.41698439    -0.22000
C920        C  0.00436790  0.91682479  0.42888506    -0.22000
C921        C  0.49259964  0.57551892  0.44283521    -0.22000
C922        C  0.02323588  0.57222866  0.44224031    -0.22000
C923        C  0.41218858  0.99662915  0.39396140    -0.23100
C924        C  0.41811338  0.52104147  0.39273721    -0.23100
C925        C  0.07722178  0.97892891  0.39679705    -0.23100
C926        C  0.08266136  0.50284177  0.38626318    -0.23100
C927        C  0.44204968  0.95788716  0.40329251    -0.18500
C928        C  0.04121888  0.94681647  0.41008388    -0.18500
C929        C  0.05338244  0.53929206  0.41014222    -0.18400
C930        C  0.45505087  0.54900700  0.41683942    -0.18400
H931        H  0.45849379  0.90513380  0.42489937     0.14500
H932        H  0.01576236  0.89991950  0.43970959     0.14500
H933        H  0.48160100  0.59115150  0.45791363     0.14500
H934        H  0.03783978  0.58593984  0.45381647     0.14500
H935        H  0.39334847  0.98650036  0.39107008     0.12700
H936        H  0.40224376  0.53570718  0.39205893     0.12700
H937        H  0.09370306  0.96526574  0.39237098     0.12700
H938        H  0.10121737  0.51348871  0.38340806     0.12700
H939        H  0.49345246  0.97757101  0.38569369     0.26000
H940        H  0.50077514  0.52310228  0.38772266     0.26000
O941        O  0.50619117  0.95090339  0.88817294    -0.80300
O942        O  0.50231216  0.95951909  0.12021570    -0.81800
O943        O  0.04700792  0.92913774  0.00515569    -0.78900
O944        O  0.46445588  0.92509833  0.00943998    -0.77200
O945        O  0.43066406  0.95562757  0.00815450    -0.79000
O946        O  0.07674613  0.96274581  0.99991753    -0.80000
O947        O  0.50500499  0.92818504  0.07032269    -0.81300
O948        O  0.50865211  0.92406594  0.94353158    -0.81600
Eu949      Eu  0.50596722  0.94954713  0.00485782     2.39200
O950        O  0.47818183  0.97611062  0.04472583    -0.89100
O951        O  0.02733899  0.97459874  0.95650904    -0.92700
C952        C  0.50822071  0.92752226  0.90523172     1.02000
C953        C  0.50329739  0.93511553  0.10739461     1.01800
C954        C  0.07086250  0.93812090  0.00434519     1.01800
C955        C  0.43970793  0.93169267  0.01119296     0.99600
H956        H  0.03979848  0.96699013  0.05826765     0.29400
O957        O  0.02777743  0.97754289  0.04197801    -1.01500
H958        H  0.46668431  0.95983451  0.94524573     0.29400
O959        O  0.47755500  0.97229586  0.95989729    -1.04000
O960        O  0.50085857  0.55021663  0.11291040    -0.81200
O961        O  0.49905418  0.54343042  0.87953761    -0.80800
O962        O  0.07583642  0.00476711  0.05856866    -0.79200
O963        O  0.42744960  0.00078391  0.06386844    -0.82600
O964        O  0.42582042  0.49597356  0.93587515    -0.80400
O965        O  0.07725677  0.50275574  0.93651974    -0.79100
O966        O  0.03648916  0.57999766  0.99568936    -0.80600
O967        O  0.45445306  0.57317614  0.99832912    -0.82500
O968        O  0.07150561  0.55116722  0.99782771    -0.79300
O969        O  0.42478541  0.53931319  0.00092529    -0.81900
O970        O  0.04857225  0.00367999  0.11345674    -0.77700
O971        O  0.04772244  0.49923171  0.88419034    -0.77700
O972        O  0.45515207  0.49657373  0.88308700    -0.77300
O973        O  0.45585552  0.00477507  0.11711972    -0.80800
O974        O  0.49932619  0.57751223  0.05795474    -0.80300
O975        O  0.49740039  0.57445324  0.92996891    -0.78600
Eu976      Eu  0.50287086  0.00466103  0.08703695     2.39800
Eu977      Eu  0.50166636  0.49826723  0.91283703     2.39600
Eu978      Eu  0.05182016  0.00396791  0.99623159     2.38400
Eu979      Eu  0.45042084  0.99951475  0.00021327     2.39900
Eu980      Eu  0.49856234  0.55315641  0.99548631     2.39800
O981        O  0.47370574  0.52446980  0.95475373    -0.93000
O982        O  0.02475597  0.53028071  0.04174473    -0.91900
C983        C  0.50027896  0.57371930  0.09615926     1.02200
C984        C  0.49806800  0.56777678  0.89268901     1.00900
C985        C  0.07219691  0.00411044  0.09671406     1.00300
C986        C  0.43194731  0.00321945  0.10169513     1.02300
C987        C  0.43114252  0.49650982  0.89808391     1.01200
C988        C  0.07176098  0.50029727  0.89886251     1.00100
C989        C  0.06156615  0.57484783  0.99630743     1.00100
C990        C  0.43067557  0.56418225  0.00154492     1.02700
H991        H  0.03595151  0.53993206  0.93962548     0.30100
O992        O  0.02537628  0.52828215  0.95623902    -1.05200
H993        H  0.46198553  0.53762353  0.05547311     0.32100
O994        O  0.47388693  0.52656918  0.03996663    -1.07700
N995        N  0.25718171  0.79119721  0.07727926    -0.36800
N996        N  0.21070327  0.75826330  0.06485406    -0.57300
N997        N  0.24518271  0.71311405  0.06210679    -0.36800
N998        N  0.29178423  0.74594604  0.07775573    -0.57300
C999        C  0.23756864  0.80856464  0.08630882     0.26800
C1000       C  0.28033532  0.80247366  0.08808217     0.26800
C1001       C  0.22110814  0.70137149  0.06306417     0.26800
C1002       C  0.26332927  0.69470322  0.07335246     0.26800
C1003       C  0.20018161  0.78253016  0.05833384     0.35400
C1004       C  0.19413964  0.74093429  0.04709443     0.35400
C1005       C  0.31013592  0.76498401  0.07157532     0.35400
C1006       C  0.30363516  0.72275257  0.06811511     0.35400
C1007       C  0.24831472  0.83103229  0.10390433    -0.22000
C1008       C  0.27549235  0.82729056  0.10457195    -0.22000
C1009       C  0.22387160  0.67516745  0.07534851    -0.22000
C1010       C  0.25066413  0.67094420  0.08194771    -0.22000
C1011       C  0.17658534  0.78059766  0.03679313    -0.23100
C1012       C  0.17273871  0.75408988  0.02970750    -0.23100
C1013       C  0.33405008  0.75382861  0.05927034    -0.23100
C1014       C  0.32997158  0.72692265  0.05726430    -0.23100
C1015       C  0.21108626  0.80625592  0.07310396    -0.18500
C1016       C  0.30554995  0.79221146  0.07813158    -0.18500
C1017       C  0.29103648  0.69786245  0.06976086    -0.18400
C1018       C  0.19740252  0.71329537  0.04913012    -0.18400
H1019       H  0.23780323  0.84885912  0.11308846     0.14500
H1020       H  0.29005404  0.84152917  0.11470027     0.14500
H1021       H  0.20833256  0.66049156  0.07816198     0.14500
H1022       H  0.25991354  0.65227668  0.09052898     0.14500
H1023       H  0.16354090  0.79658857  0.02708950     0.12700
H1024       H  0.15610882  0.74548953  0.01380653     0.12700
H1025       H  0.35244960  0.76399076  0.05254964     0.12700
H1026       H  0.34461366  0.71218179  0.04838958     0.12700
H1027       H  0.25538373  0.77491400  0.05840691     0.26000
H1028       H  0.24944937  0.73112895  0.04821644     0.26000
C1029       C  0.50078331  0.75391545  0.24430167    -0.02600
C1030       C  0.25031321  0.49979134  0.25076438    -0.02600
C1031       C  0.49655036  0.74914005  0.75360016    -0.02600
C1032       C  0.25138366  0.49867466  0.74954251    -0.02600
C1033       C  0.09814880  0.00347609  0.12014136    -0.20000
C1034       C  0.10069799  0.00843991  0.16179338     0.36200
C1035       C  0.12646364  0.00898813  0.17965537    -0.26000
C1036       C  0.14996120  0.00522958  0.15682181     0.02600
C1037       C  0.13966879  0.52979417  0.13667752     0.27400
C1038       C  0.11400088  0.52995587  0.11971354    -0.25100
N1039       N  0.07739842  0.01312088  0.18582164    -0.82500
H1040       H  0.12825586  0.01257361  0.21163631     0.13200
C1041       C  0.17709784  0.00648385  0.17631701     0.02600
N1042       N  0.15858497  0.54930248  0.12413435    -0.81100
H1043       H  0.10916907  0.54498091  0.09736952     0.18100
C1044       C  0.19168737  0.48737864  0.17544523    -0.25900
C1045       C  0.21685544  0.48524004  0.19445151     0.36100
C1046       C  0.22673066  0.00546491  0.21958776    -0.20000
C1047       C  0.20973992  0.02813672  0.21961119    -0.25200
C1048       C  0.18493588  0.02852335  0.19942848     0.27500
H1049       H  0.18524640  0.47163520  0.15561705     0.13200
N1050       N  0.23307639  0.46231121  0.18672175    -0.82500
H1051       H  0.21537423  0.04585186  0.23547812     0.18100
N1052       N  0.16768207  0.05136724  0.20223059    -0.81100
H1053       H  0.23723360  0.46183070  0.15592310     0.33700
H1054       H  0.22210673  0.44537027  0.19390960     0.38200
H1055       H  0.17606683  0.06587417  0.22064660     0.32300
H1056       H  0.16607033  0.05968268  0.17346167     0.30400
H1057       H  0.16094285  0.54777730  0.09297763     0.33700
H1058       H  0.15059373  0.56809262  0.13032552     0.30400
H1059       H  0.06881811  0.03096880  0.17598900     0.38200
H1060       H  0.08266856  0.01596654  0.21591102     0.33700
C1061       C  0.40665465  0.00475609  0.12647088    -0.20000
C1062       C  0.40198351  0.48860605  0.16228314     0.36200
C1063       C  0.37633888  0.48748226  0.18065597    -0.26000
C1064       C  0.35524128  0.00271529  0.16423004     0.02600
C1065       C  0.35765248  0.01008284  0.12351290     0.27400
C1066       C  0.38296259  0.01173288  0.10577379    -0.25100
N1067       N  0.42462496  0.47640011  0.18139345    -0.82500
H1068       H  0.37436606  0.47854584  0.21016637     0.13200
C1069       C  0.32810389  0.00121226  0.18368955     0.02600
N1070       N  0.33421630  0.01501380  0.09966730    -0.81100
H1071       H  0.38393175  0.01785608  0.07455427     0.18100
C1072       C  0.30934633  0.51924851  0.18035143    -0.25900
C1073       C  0.28380449  0.51928130  0.19798110     0.36100
C1074       C  0.27663449  0.00006138  0.22194364    -0.20000
C1075       C  0.29359744  0.97737423  0.22086853    -0.25200
C1076       C  0.31905381  0.97784355  0.20262727     0.27500
H1077       H  0.31629115  0.53745993  0.16661392     0.13200
N1078       N  0.26741876  0.54259062  0.19422134    -0.82500
H1079       H  0.28718281  0.95878513  0.23366184     0.18100
N1080       N  0.33558996  0.95440780  0.20269771    -0.81100
H1081       H  0.26378466  0.54581120  0.16362932     0.33700
H1082       H  0.27805570  0.55887197  0.20498485     0.38200
H1083       H  0.32625365  0.93884934  0.21796103     0.33700
H1084       H  0.33781334  0.94830182  0.17284673     0.30400
H1085       H  0.33932309  0.01976237  0.07005099     0.33700
H1086       H  0.32354184  0.99727785  0.09831464     0.30400
H1087       H  0.43782676  0.49152354  0.18902621     0.38200
H1088       H  0.41897680  0.46729934  0.20835628     0.33700
C1089       C  0.50228669  0.91239999  0.13578740    -0.20000
C1090       C  0.02147569  0.89071875  0.13088586     0.36200
C1091       C  0.01819985  0.86577708  0.14956074    -0.26000
C1092       C  0.49788516  0.86017735  0.16757429     0.02600
C1093       C  0.47497172  0.87640769  0.16336069     0.27400
C1094       C  0.47738634  0.90235211  0.14735335    -0.25100
N1095       N  0.04527160  0.89597457  0.10855240    -0.82500
H1096       H  0.03383008  0.85094118  0.14671881     0.13200
C1097       C  0.49639909  0.83284766  0.18495331     0.02600
N1098       N  0.44933590  0.86625971  0.17456282    -0.81100
H1099       H  0.45964918  0.91419144  0.14175713     0.18100
C1100       C  0.49524685  0.83021339  0.22657402    -0.25900
C1101       C  0.49653573  0.80522709  0.24515326     0.36100
C1102       C  0.49823517  0.78135548  0.22187765    -0.20000
C1103       C  0.99369825  0.78355831  0.18564159    -0.25200
C1104       C  0.99349755  0.80887383  0.16653253     0.27500
H1105       H  0.49444512  0.84789082  0.24510119     0.13200
N1106       N  0.49739710  0.80430509  0.28820807    -0.82500
H1107       H  0.99354033  0.76600724  0.16714971     0.18100
N1108       N  0.99458243  0.81081013  0.12344485    -0.81100
H1109       H  0.48011660  0.81343348  0.29923319     0.33700
H1110       H  0.51376015  0.81528447  0.29791771     0.38200
H1111       H  0.99556011  0.79190564  0.11056315     0.33700
H1112       H  0.97672887  0.81950648  0.11374046     0.30400
H1113       H  0.43452548  0.88061900  0.16966117     0.33700
H1114       H  0.44507741  0.85037776  0.15547652     0.30400
H1115       H  0.04707675  0.88159525  0.08609503     0.38200
H1116       H  0.06149214  0.89378622  0.12801997     0.33700
C1117       C  0.50088638  0.59909194  0.12032675    -0.20000
C1118       C  0.01223507  0.60015533  0.16295251     0.36200
C1119       C  0.01331515  0.62499340  0.18319604    -0.26000
C1120       C  0.50394913  0.64956395  0.15943429     0.02600
C1121       C  0.49673139  0.64811951  0.11870322     0.27400
C1122       C  0.49545450  0.62325102  0.09978459    -0.25100
N1123       N  0.02304071  0.57665200  0.18162139    -0.82500
H1124       H  0.02197224  0.62597866  0.21298798     0.13200
C1125       C  0.50372158  0.67581369  0.18072763     0.02600
N1126       N  0.49026911  0.67198311  0.09671804    -0.81100
H1127       H  0.49008554  0.62298054  0.06829253     0.18100
C1128       C  0.01879075  0.69636566  0.17311853    -0.25900
C1129       C  0.01874538  0.72143521  0.19253899     0.36100
C1130       C  0.50105009  0.72735252  0.21859709    -0.20000
C1131       C  0.48462236  0.70559666  0.23039118    -0.25200
C1132       C  0.48535602  0.68065982  0.21157872     0.27500
H1133       H  0.03137507  0.69347741  0.14699003     0.13200
N1134       N  0.03820868  0.74005260  0.17866837    -0.82500
H1135       H  0.47129468  0.70712147  0.25568893     0.18100
N1136       N  0.46739127  0.66003534  0.22397692    -0.81100
H1137       H  0.03368263  0.74519631  0.14894439     0.33700
H1138       H  0.03796036  0.75726929  0.19548654     0.38200
H1139       H  0.45518297  0.66646356  0.24753415     0.33700
H1140       H  0.45478312  0.65605404  0.19974688     0.30400
H1141       H  0.48549388  0.66761449  0.06686724     0.33700
H1142       H  0.47310707  0.68020887  0.10959420     0.30400
H1143       H  0.03944084  0.57051283  0.16454960     0.38200
H1144       H  0.03028674  0.58099588  0.21031973     0.33700
C1145       C  0.09311214  0.91955497  0.01208935    -0.20000
C1146       C  0.09058285  0.89157870  0.00916662     0.36200
C1147       C  0.11144211  0.87532375  0.02212813    -0.26000
C1148       C  0.13480794  0.88627734  0.03757803     0.02600
C1149       C  0.13817214  0.91389198  0.03853365     0.27400
C1150       C  0.11729050  0.93029985  0.02577191    -0.25100
N1151       N  0.06760232  0.87900201  0.99246047    -0.82500
H1152       H  0.10942659  0.85392562  0.02023251     0.13200
C1153       C  0.15597943  0.86840485  0.05141676     0.02600
N1154       N  0.16264475  0.92506304  0.05292992    -0.81100
H1155       H  0.11973906  0.95160731  0.02785787     0.18100
C1156       C  0.17994702  0.86774886  0.03000868    -0.25900
C1157       C  0.19926346  0.84865016  0.03900116     0.36100
C1158       C  0.19453659  0.83030668  0.07006405    -0.20000
C1159       C  0.17134133  0.83206945  0.09331110    -0.25200
C1160       C  0.15178430  0.85104073  0.08407863     0.27500
H1161       H  0.18304895  0.88120497  0.00493950     0.13200
N1162       N  0.22291608  0.84680028  0.01505982    -0.82500
H1163       H  0.16789594  0.81762058  0.11696150     0.18100
N1164       N  0.12734524  0.85219253  0.10655495    -0.81100
H1165       H  0.23285888  0.86493277  0.01692966     0.33700
H1166       H  0.21727164  0.84396881  0.98512356     0.38200
H1167       H  0.12734596  0.83778151  0.12929109     0.33700
H1168       H  0.12650724  0.87065835  0.12082786     0.30400
H1169       H  0.16204322  0.94578340  0.05101865     0.33700
H1170       H  0.16439117  0.92026651  0.08343852     0.30400
H1171       H  0.06381695  0.88713030  0.96402482     0.38200
H1172       H  0.05123540  0.88216326  0.01123795     0.33700
C1173       C  0.42041408  0.91053034  0.01929801    -0.20000
C1174       C  0.42382208  0.88467257  0.00386855     0.36200
C1175       C  0.40557852  0.86488658  0.01417302    -0.26000
C1176       C  0.38430291  0.87047608  0.04013406     0.02600
C1177       C  0.38095289  0.89619419  0.05594400     0.27400
C1178       C  0.39897427  0.91607052  0.04510276    -0.25100
N1179       N  0.44550172  0.87855140  0.97736166    -0.82500
H1180       H  0.40802463  0.84507129  0.00197136     0.13200
C1181       C  0.36502280  0.84948495  0.04944889     0.02600
N1182       N  0.35931792  0.90192843  0.08296612    -0.81100
H1183       H  0.39660981  0.93583016  0.05754995     0.18100
C1184       C  0.36347803  0.83941483  0.08877560    -0.25900
C1185       C  0.34446833  0.82020823  0.09887850     0.36100
C1186       C  0.32688701  0.81126721  0.06903295    -0.20000
C1187       C  0.32862608  0.82113514  0.02968119    -0.25200
C1188       C  0.34753145  0.84032225  0.01956602     0.27500
H1189       H  0.37699095  0.84673232  0.11153302     0.13200
N1190       N  0.34245427  0.81020599  0.13927831    -0.82500
H1191       H  0.31483887  0.81412547  0.00706274     0.18100
N1192       N  0.34878282  0.85092090  0.97938824    -0.81100
H1193       H  0.35664850  0.81913283  0.15773000     0.33700
H1194       H  0.34710401  0.78992920  0.13857632     0.38200
H1195       H  0.33455869  0.84195895  0.96102704     0.33700
H1196       H  0.34371537  0.87108697  0.98083691     0.30400
H1197       H  0.35991781  0.92173209  0.09233460     0.33700
H1198       H  0.34156438  0.89968869  0.06696727     0.30400
H1199       H  0.45677485  0.86323415  0.99037956     0.38200
H1200       H  0.43761854  0.87151935  0.95034833     0.33700
C1201       C  0.40878694  0.58337463  0.00918991    -0.20000
C1202       C  0.41374339  0.61014240  0.01990069     0.36200
C1203       C  0.39265129  0.62640445  0.03233340    -0.26000
C1204       C  0.36670034  0.61670833  0.03355601     0.02600
C1205       C  0.36136871  0.59071741  0.02122296     0.27400
C1206       C  0.38239411  0.57412578  0.00954836    -0.25100
N1207       N  0.44003862  0.62095594  0.01888533    -0.82500
H1208       H  0.39651145  0.64681334  0.04077232     0.13200
C1209       C  0.34506229  0.63485482  0.04463427     0.02600
N1210       N  0.33457263  0.58122524  0.02052457    -0.81100
H1211       H  0.37795000  0.55385280  0.00116545     0.18100
C1212       C  0.32924350  0.64539429  0.01382305    -0.25900
C1213       C  0.31031885  0.66508684  0.02205036     0.36100
C1214       C  0.30739522  0.67415871  0.06181639    -0.20000
C1215       C  0.32249424  0.66292861  0.09299569    -0.25200
C1216       C  0.34143887  0.64311204  0.08470280     0.27500
H1217       H  0.33240709  0.63889220  0.98313066     0.13200
N1218       N  0.29509957  0.67702803  0.99003235    -0.82500
H1219       H  0.32008376  0.67029491  0.12337874     0.18100
N1220       N  0.35748438  0.63185272  0.11633162    -0.81100
H1221       H  0.30039242  0.66871621  0.96235495     0.33700
H1222       H  0.27511040  0.67231798  0.99479381     0.38200
H1223       H  0.35239366  0.64028585  0.14401563     0.33700
H1224       H  0.35290705  0.61165665  0.11836410     0.30400
H1225       H  0.33018461  0.57550861  0.99108372     0.33700
H1226       H  0.33359220  0.56432298  0.03870139     0.30400
H1227       H  0.44447932  0.62801902  0.04761923     0.38200
H1228       H  0.43995243  0.63716736  0.99912284     0.33700
C1229       C  0.17507254  0.69632873  0.03659514    -0.20000
C1230       C  0.17338910  0.68661313  0.99695633     0.36200
C1231       C  0.15230165  0.67013311  0.98632642    -0.26000
C1232       C  0.13284693  0.66312984  0.01466860     0.02600
C1233       C  0.13411198  0.67358257  0.05390517     0.27400
C1234       C  0.15511782  0.69030238  0.06445747    -0.25100
N1235       N  0.19301598  0.69296823  0.96724783    -0.82500
H1236       H  0.15150854  0.66205601  0.95617295     0.13200
C1237       C  0.11390452  0.64182273  0.00484593     0.02600
N1238       N  0.11486215  0.66620983  0.08362386    -0.81100
H1239       H  0.15628319  0.69802678  0.09478940     0.18100
C1240       C  0.12423678  0.61678529  0.99480379    -0.25900
C1241       C  0.10758428  0.59482237  0.99059831     0.36100
C1242       C  0.07986353  0.59786083  0.99637991    -0.20000
C1243       C  0.06944385  0.62345028  0.00403910    -0.25200
C1244       C  0.08621674  0.64536915  0.00830132     0.27500
H1245       H  0.14556401  0.61401135  0.99173709     0.13200
N1246       N  0.11909955  0.56950071  0.98100800    -0.82500
H1247       H  0.04822223  0.62648291  0.00795132     0.18100
N1248       N  0.07511182  0.67109485  0.01648849    -0.81100
H1249       H  0.12935372  0.57133459  0.95378127     0.33700
H1250       H  0.13290423  0.56459226  0.00342323     0.38200
H1251       H  0.06202339  0.67600019  0.99312134     0.33700
H1252       H  0.06399102  0.66980066  0.04301130     0.30400
H1253       H  0.12491829  0.65714555  0.10759715     0.33700
H1254       H  0.10581354  0.68357798  0.09433281     0.30400
H1255       H  0.19359284  0.71362766  0.96401006     0.38200
H1256       H  0.21158377  0.68643615  0.97767415     0.33700
C1257       C  0.40700083  0.49799103  0.87180634    -0.20000
C1258       C  0.38577559  0.51532800  0.88256184     0.36200
C1259       C  0.36100655  0.51352835  0.86300272    -0.26000
C1260       C  0.35769127  0.99575598  0.83094912     0.02600
C1261       C  0.37960346  0.97948170  0.81942018     0.27400
C1262       C  0.40435669  0.98149978  0.83994402    -0.25100
N1263       N  0.38940037  0.53457497  0.91396724    -0.82500
H1264       H  0.34492951  0.52683993  0.87152867     0.13200
C1265       C  0.33066918  0.99419035  0.81106609     0.02600
N1266       N  0.37647617  0.96051425  0.78759940    -0.81100
H1267       H  0.42059524  0.96816057  0.83229735     0.18100
C1268       C  0.32787828  0.50020811  0.77158661    -0.25900
C1269       C  0.30311182  0.50178319  0.75193897     0.36100
C1270       C  0.27872911  0.49733323  0.77314453    -0.20000
C1271       C  0.28181373  0.99002853  0.81376485    -0.25200
C1272       C  0.30706042  0.98942021  0.83318695     0.27500
H1273       H  0.34584835  0.50426669  0.75465664     0.13200
N1274       N  0.30298821  0.50827703  0.70997250    -0.82500
H1275       H  0.26450304  0.98518503  0.83137986     0.18100
N1276       N  0.30883695  0.98371961  0.87547974    -0.81100
H1277       H  0.31209935  0.52674134  0.70624382     0.33700
H1278       H  0.31442737  0.49404559  0.69481222     0.38200
H1279       H  0.28990707  0.98077312  0.88770260     0.33700
H1280       H  0.31925293  0.96577870  0.87877531     0.30400
H1281       H  0.39429339  0.95014233  0.78270649     0.33700
H1282       H  0.36249809  0.94653712  0.79708723     0.30400
H1283       H  0.40385309  0.54799681  0.90425472     0.38200
H1284       H  0.37194267  0.54558058  0.91865980     0.33700
C1285       C  0.09562624  0.49792987  0.87210109    -0.20000
C1286       C  0.11560224  0.98236506  0.88046500     0.36200
C1287       C  0.14047607  0.98444876  0.86104189    -0.26000
C1288       C  0.14589149  0.50005937  0.83234628     0.02600
C1289       C  0.12479822  0.51716952  0.82038569     0.27400
C1290       C  0.09984328  0.51590754  0.84030754    -0.25100
N1291       N  0.11259305  0.96436435  0.91383811    -0.82500
H1292       H  0.15723719  0.97281116  0.87192669     0.13200
C1293       C  0.17281369  0.50091173  0.81267391     0.02600
N1294       N  0.12902899  0.53615467  0.78868316    -0.81100
H1295       H  0.08414037  0.52982916  0.83234574     0.18100
C1296       C  0.17464237  0.99182843  0.76993973    -0.25900
C1297       C  0.19975481  0.99009841  0.75117971     0.36100
C1298       C  0.22390623  0.49894098  0.77287683    -0.20000
C1299       C  0.22089230  0.50931544  0.81216516    -0.25200
C1300       C  0.19614476  0.50972781  0.83249846     0.27500
H1301       H  0.15730137  0.98470178  0.75396590     0.13200
N1302       N  0.20039384  0.98038383  0.71074889    -0.82500
H1303       H  0.23757178  0.51791022  0.82760151     0.18100
N1304       N  0.19560363  0.51960331  0.87304324    -0.81100
H1305       H  0.19254730  0.96118948  0.71061561     0.33700
H1306       H  0.18808757  0.99251799  0.69304796     0.38200
H1307       H  0.20156702  0.53945506  0.87216719     0.33700
H1308       H  0.17640689  0.51963816  0.88499236     0.30400
H1309       H  0.11170534  0.54728328  0.78346615     0.33700
H1310       H  0.14348493  0.54949014  0.79852172     0.30400
H1311       H  0.09879477  0.94995502  0.90539860     0.38200
H1312       H  0.13045095  0.95429988  0.91979858     0.33700
C1313       C  0.49883412  0.59080712  0.86467943    -0.20000
C1314       C  0.51924033  0.60966023  0.86938231     0.36200
C1315       C  0.51673881  0.63508625  0.85219842    -0.26000
C1316       C  0.99563679  0.64351063  0.83134174     0.02600
C1317       C  0.97545117  0.62438026  0.82492399     0.27400
C1318       C  0.97756019  0.59882889  0.84288493    -0.25100
N1319       N  0.54235331  0.60314826  0.89279476    -0.82500
H1320       H  0.53255509  0.64933129  0.85649870     0.13200
C1321       C  0.99447341  0.67076011  0.81244541     0.02600
N1322       N  0.95247870  0.63125311  0.80121039    -0.81100
H1323       H  0.96141846  0.58482447  0.83975136     0.18100
C1324       C  0.99248838  0.67281729  0.77068476    -0.25900
C1325       C  0.99297258  0.69750915  0.75095260     0.36100
C1326       C  0.49462608  0.72144788  0.77569245    -0.20000
C1327       C  0.49460791  0.71846345  0.81798372    -0.25200
C1328       C  0.49357719  0.69301216  0.83646593     0.27500
H1329       H  0.99133557  0.65488593  0.75281983     0.13200
N1330       N  0.99193005  0.69768670  0.70788660    -0.82500
H1331       H  0.49502283  0.73585488  0.83690888     0.18100
N1332       N  0.49348677  0.69057689  0.87953696    -0.81100
H1333       H  0.00786730  0.68633097  0.69699670     0.33700
H1334       H  0.97423772  0.68858140  0.69900111     0.38200
H1335       H  0.49429950  0.70931449  0.89294347     0.33700
H1336       H  0.47527103  0.68228341  0.88791336     0.30400
H1337       H  0.93951342  0.61514613  0.79933621     0.33700
H1338       H  0.94220741  0.64638499  0.81626195     0.30400
H1339       H  0.54366391  0.61676932  0.91637488     0.38200
H1340       H  0.55911842  0.60544777  0.87450598     0.33700
C1341       C  0.49904162  0.77463759  0.78131316    -0.20000
C1342       C  0.52137069  0.77892601  0.80694808     0.36200
C1343       C  0.52503590  0.80373314  0.82634846    -0.26000
C1344       C  0.50720522  0.82512342  0.82059898     0.02600
C1345       C  0.98093981  0.82152504  0.78720482     0.27400
C1346       C  0.97980439  0.79701243  0.76730715    -0.25100
N1347       N  0.54103440  0.75849091  0.81238186    -0.82500
H1348       H  0.54221800  0.80641046  0.84556892     0.13200
C1349       C  0.51061445  0.85122166  0.84193179     0.02600
N1350       N  0.96201584  0.84201661  0.77755690    -0.81100
H1351       H  0.96496781  0.79588235  0.74394919     0.18100
C1352       C  0.01168917  0.87506785  0.81896840    -0.25900
C1353       C  0.01066016  0.90046372  0.83754340     0.36100
C1354       C  0.50971003  0.90188251  0.88140142    -0.20000
C1355       C  0.50805602  0.87757733  0.90302145    -0.25200
C1356       C  0.50848896  0.85263416  0.88401217     0.27500
H1357       H  0.02060416  0.87300370  0.78946457     0.13200
N1358       N  0.02171177  0.92319963  0.81757109    -0.82500
H1359       H  0.50581959  0.87775875  0.93539947     0.18100
N1360       N  0.50605525  0.82867124  0.90740379    -0.81100
H1361       H  0.03016751  0.91765861  0.79008313     0.33700
H1362       H  0.00593504  0.93608725  0.81065044     0.38200
H1363       H  0.50499126  0.83299324  0.93810022     0.33700
H1364       H  0.48798918  0.81982622  0.89974802     0.30400
H1365       H  0.96367526  0.84631547  0.74687430     0.33700
H1366       H  0.94293671  0.83460088  0.78282870     0.30400
H1367       H  0.54257276  0.75438489  0.84314053     0.38200
H1368       H  0.55935230  0.76586511  0.80263061     0.33700
C1369       C  0.34144496  0.75266849  0.63012950    -0.20000
C1370       C  0.36099313  0.77228846  0.62364034     0.36200
C1371       C  0.38572727  0.77070887  0.64327394    -0.26000
C1372       C  0.39181640  0.74980274  0.66975693     0.02600
C1373       C  0.37192087  0.73059455  0.67781166     0.27400
C1374       C  0.34693590  0.73223002  0.65791816    -0.25100
N1375       N  0.35578472  0.79392777  0.59656755    -0.82500
H1376       H  0.40036427  0.78599215  0.63763773     0.13200
C1377       C  0.41871784  0.74907383  0.68966593     0.02600
N1378       N  0.37740635  0.70913157  0.70529066    -0.81100
H1379       H  0.33229496  0.71681931  0.66257527     0.18100
C1380       C  0.42021926  0.74890976  0.73161288    -0.25900
C1381       C  0.44477267  0.74933785  0.75176496     0.36100
C1382       C  0.46932994  0.75031749  0.73003035    -0.20000
C1383       C  0.46760521  0.75042060  0.68759197    -0.25200
C1384       C  0.44275698  0.74970065  0.66739719     0.27500
H1385       H  0.40203292  0.74883091  0.74915730     0.13200
N1386       N  0.44462598  0.74931457  0.79487619    -0.82500
H1387       H  0.48556330  0.74994146  0.66976180     0.18100
N1388       N  0.44187615  0.74908480  0.62420719    -0.81100
H1389       H  0.43362322  0.76579527  0.80463798     0.33700
H1390       H  0.43489476  0.73218268  0.80470811     0.38200
H1391       H  0.46109476  0.74972268  0.61217108     0.33700
H1392       H  0.43381918  0.73083064  0.61579213     0.30400
H1393       H  0.36086837  0.69675126  0.70794094     0.33700
H1394       H  0.39276378  0.69762160  0.69297461     0.30400
H1395       H  0.35774459  0.81166674  0.61253737     0.38200
H1396       H  0.37029904  0.79359425  0.57402281     0.33700
C1397       C  0.02345840  0.74913519  0.72344449    -0.20000
C1398       C  0.03013132  0.77003033  0.69632873     0.36200
C1399       C  0.05526732  0.77046787  0.67674680    -0.26000
C1400       C  0.07493612  0.75087969  0.68388885     0.02600
C1401       C  0.06897087  0.73043704  0.71129803     0.27400
C1402       C  0.04406002  0.73004058  0.73087121    -0.25100
N1403       N  0.01179900  0.79145431  0.68927149    -0.82500
H1404       H  0.05959378  0.78659631  0.65614966     0.13200
C1405       C  0.10131001  0.75122023  0.66179753     0.02600
N1406       N  0.08836630  0.70991505  0.71934309    -0.81100
H1407       H  0.04165565  0.71474156  0.75329398     0.18100
C1408       C  0.12574160  0.75048209  0.68293012    -0.25900
C1409       C  0.15072729  0.74880630  0.66277225     0.36100
C1410       C  0.15158772  0.74815736  0.62016606    -0.20000
C1411       C  0.12689768  0.74932208  0.59947666    -0.25200
C1412       C  0.10217545  0.75063415  0.61948512     0.27500
H1413       H  0.12529277  0.75093891  0.71549052     0.13200
N1414       N  0.17498800  0.74770027  0.68559122    -0.82500
H1415       H  0.12657333  0.74901701  0.56693410     0.18100
N1416       N  0.07781396  0.75086003  0.59674011    -0.81100
H1417       H  0.17094594  0.74912158  0.71636146     0.33700
H1418       H  0.18351760  0.72892682  0.68111587     0.38200
H1419       H  0.08173284  0.75062064  0.56585723     0.33700
H1420       H  0.06770200  0.73328456  0.60331593     0.30400
H1421       H  0.08125715  0.69637432  0.74062865     0.33700
H1422       H  0.09123984  0.69925595  0.69273705     0.30400
H1423       H  0.00803753  0.79255387  0.65838262     0.38200
H1424       H  0.02098832  0.80912581  0.69785676     0.33700
C1425       C  0.25039322  0.52626700  0.72652289    -0.20000
C1426       C  0.25769295  0.55034826  0.74656052     0.36200
C1427       C  0.25643935  0.57508521  0.72671956    -0.26000
C1428       C  0.24722017  0.57743432  0.68729329     0.02600
C1429       C  0.23805799  0.55437345  0.66778864     0.27400
C1430       C  0.23915508  0.52942942  0.68769335    -0.25100
N1431       N  0.26641470  0.55013600  0.78755807    -0.82500
H1432       H  0.26308318  0.59270167  0.74235366     0.13200
C1433       C  0.24853416  0.60385759  0.66621693     0.02600
N1434       N  0.22734488  0.55643293  0.62780433    -0.81100
H1435       H  0.23052962  0.51274234  0.67251001     0.18100
C1436       C  0.26504148  0.60628920  0.63251725    -0.25900
C1437       C  0.26739628  0.63049912  0.61153589     0.36100
C1438       C  0.25240893  0.65314748  0.62381771    -0.20000
C1439       C  0.23654283  0.65102750  0.65854010    -0.25200
C1440       C  0.23445458  0.62661863  0.67983108     0.27500
H1441       H  0.27637774  0.58910239  0.62264211     0.13200
N1442       N  0.28504044  0.63211090  0.57751857    -0.82500
H1443       H  0.22494242  0.66809450  0.66814072     0.18100
N1444       N  0.21763134  0.62469614  0.71465452    -0.81100
H1445       H  0.30010868  0.64550015  0.58474622     0.33700
H1446       H  0.29435322  0.61380983  0.57215889     0.38200
H1447       H  0.20862550  0.64304411  0.72074428     0.33700
H1448       H  0.20229393  0.61152014  0.70783140     0.30400
H1449       H  0.22152855  0.53779365  0.61732256     0.33700
H1450       H  0.21010677  0.56816169  0.62932726     0.30400
H1451       H  0.28557929  0.55807737  0.78867637     0.38200
H1452       H  0.25375096  0.56254080  0.80411657     0.33700
C1453       C  0.24702532  0.84165894  0.62760371    -0.20000
C1454       C  0.22673996  0.86118631  0.62378145     0.36200
C1455       C  0.22920330  0.88596934  0.64327928    -0.26000
C1456       C  0.25161453  0.89203129  0.66662045     0.02600
C1457       C  0.27161509  0.87229584  0.67154790     0.27400
C1458       C  0.26909300  0.84730526  0.65215653    -0.25100
N1459       N  0.20386258  0.85589832  0.59916437    -0.82500
H1460       H  0.21362813  0.90082183  0.63992127     0.13200
C1461       C  0.25340635  0.91891135  0.68630481     0.02600
N1462       N  0.29474823  0.87799807  0.69533372    -0.81100
H1463       H  0.28501960  0.83274745  0.65454377     0.18100
C1464       C  0.24942007  0.92101180  0.72769175    -0.25900
C1465       C  0.24923884  0.94580012  0.74721683     0.36100
C1466       C  0.25293618  0.97012058  0.72539514    -0.20000
C1467       C  0.25850570  0.96752766  0.68379015    -0.25200
C1468       C  0.25838514  0.94240774  0.66419625     0.27500
H1469       H  0.24593243  0.90314833  0.74516895     0.13200
N1470       N  0.24479168  0.94605858  0.78976265    -0.82500
H1471       H  0.26366440  0.98475953  0.66622325     0.18100
N1472       N  0.26349868  0.94062324  0.62177851    -0.81100
H1473       H  0.22642068  0.93720027  0.79559063     0.33700
H1474       H  0.25964155  0.93451429  0.80348174     0.38200
H1475       H  0.26676455  0.95948633  0.60955885     0.33700
H1476       H  0.28118311  0.92981975  0.61802592     0.30400
H1477       H  0.30769515  0.86163594  0.69582959     0.33700
H1478       H  0.30495349  0.89344779  0.68112715     0.30400
H1479       H  0.19363564  0.84005904  0.61229797     0.38200
H1480       H  0.19079236  0.87216283  0.59911298     0.33700
C1481       C  0.43607016  0.56839620  0.43374769    -0.20000
C1482       C  0.42547000  0.56473513  0.47268438     0.36200
C1483       C  0.40844264  0.58395856  0.48866880    -0.26000
C1484       C  0.40181322  0.60670641  0.46633336     0.02600
C1485       C  0.41248610  0.61045094  0.42745908     0.27400
C1486       C  0.42975445  0.59122001  0.41159050    -0.25100
N1487       N  0.43198213  0.54184935  0.49661157    -0.82500
H1488       H  0.40022662  0.58112512  0.51851179     0.13200
C1489       C  0.38246211  0.62591841  0.48257373     0.02600
N1490       N  0.40545602  0.63361677  0.40421265    -0.81100
H1491       H  0.43824544  0.59389175  0.38189869     0.18100
C1492       C  0.39005290  0.65243740  0.48704670    -0.25900
C1493       C  0.37109685  0.67234384  0.49472514     0.36100
C1494       C  0.34388168  0.66531894  0.49796713    -0.20000
C1495       C  0.33692799  0.63826462  0.49717612    -0.25200
C1496       C  0.35587967  0.61852574  0.48908402     0.27500
H1497       H  0.41074880  0.65771070  0.48276295     0.13200
N1498       N  0.37941079  0.69955467  0.49766911    -0.82500
H1499       H  0.31635756  0.63243389  0.50078752     0.18100
N1500       N  0.34802550  0.59119334  0.48558811    -0.81100
H1501       H  0.39986759  0.70121146  0.49248243     0.33700
H1502       H  0.37620385  0.70560051  0.52734129     0.38200
H1503       H  0.32770113  0.58912814  0.49153404     0.33700
H1504       H  0.35088660  0.58548336  0.45568285     0.30400
H1505       H  0.41517555  0.63340826  0.37640790     0.33700
H1506       H  0.38505405  0.63274718  0.39815063     0.30400
H1507       H  0.45264998  0.54096698  0.50016741     0.38200
H1508       H  0.42590588  0.52485518  0.48125832     0.33700
C1509       C  0.07668377  0.55599478  0.41993854    -0.20000
C1510       C  0.08972727  0.55389046  0.45764119     0.36200
C1511       C  0.10928565  0.57238257  0.46758675    -0.26000
C1512       C  0.11591823  0.59292780  0.44107058     0.02600
C1513       C  0.10365145  0.59458656  0.40303772     0.27400
C1514       C  0.08409512  0.57598799  0.39276493    -0.25100
N1515       N  0.08327160  0.53379546  0.48688016    -0.82500
H1516       H  0.11891020  0.57114830  0.49671939     0.13200
C1517       C  0.13465230  0.61350556  0.45443393     0.02600
N1518       N  0.11073566  0.61546452  0.37550192    -0.81100
H1519       H  0.07395192  0.57755643  0.36408056     0.18100
C1520       C  0.16092759  0.61272460  0.44071647    -0.25900
C1521       C  0.17889782  0.63261265  0.45148442     0.36100
C1522       C  0.17037090  0.65392309  0.47615960    -0.20000
C1523       C  0.14403908  0.65439534  0.49031480    -0.25200
C1524       C  0.12613012  0.63419044  0.47994880     0.27500
H1525       H  0.16742697  0.59675648  0.42114358     0.13200
N1526       N  0.20550849  0.63153857  0.43601072    -0.82500
H1527       H  0.13743949  0.67054655  0.50943197     0.18100
N1528       N  0.09930690  0.63455941  0.49503671    -0.81100
H1529       H  0.20441121  0.63119282  0.40463497     0.33700
H1530       H  0.21429647  0.61370264  0.44555287     0.38200
H1531       H  0.09626442  0.65094277  0.51377807     0.33700
H1532       H  0.08651340  0.63704211  0.47048873     0.30400
H1533       H  0.09996094  0.61379123  0.34873757     0.33700
H1534       H  0.10504408  0.63353323  0.38847278     0.30400
H1535       H  0.06860422  0.52092513  0.47663668     0.38200
H1536       H  0.07539959  0.54340301  0.51209856     0.33700
C1537       C  0.06093277  0.92637552  0.42192868    -0.20000
C1538       C  0.07218542  0.92666899  0.46083520     0.36200
C1539       C  0.09108835  0.90757790  0.47131980    -0.26000
C1540       C  0.09877323  0.88798956  0.44388294     0.02600
C1541       C  0.08723497  0.88714888  0.40526991     0.27400
C1542       C  0.06821210  0.90648703  0.39458624    -0.25100
N1543       N  0.06440924  0.94587816  0.49040444    -0.82500
H1544       H  0.09980907  0.90792364  0.50113885     0.13200
C1545       C  0.11910030  0.86858923  0.45630070     0.02600
N1546       N  0.09504473  0.86683868  0.37724508    -0.81100
H1547       H  0.05921320  0.90625932  0.36497410     0.18100
C1548       C  0.11180625  0.84211950  0.46211450    -0.25900
C1549       C  0.13058444  0.82314214  0.47444199     0.36100
C1550       C  0.15736452  0.83080203  0.48057120    -0.20000
C1551       C  0.16424642  0.85770802  0.47577016    -0.25200
C1552       C  0.14538452  0.87664276  0.46357519     0.27500
H1553       H  0.09138012  0.83617407  0.45706439     0.13200
N1554       N  0.12227192  0.79620472  0.48018080    -0.82500
H1555       H  0.18456487  0.86404087  0.48050212     0.18100
N1556       N  0.15279815  0.90397246  0.45809732    -0.81100
H1557       H  0.11399407  0.78943851  0.45327903     0.33700
H1558       H  0.10733544  0.79603092  0.50208082     0.38200
H1559       H  0.17294574  0.90663193  0.46476696     0.33700
H1560       H  0.15038710  0.90863805  0.42764337     0.30400
H1561       H  0.08453894  0.86897219  0.35026693     0.33700
H1562       H  0.11514861  0.86965715  0.37039897     0.30400
H1563       H  0.04382652  0.94467301  0.49460765     0.38200
H1564       H  0.06893364  0.96486071  0.47974886     0.33700
C1565       C  0.41929741  0.94140491  0.41643794    -0.20000
C1566       C  0.40728773  0.92232222  0.39133607     0.36200
C1567       C  0.38842297  0.90509023  0.40786007    -0.26000
C1568       C  0.38171376  0.90621314  0.44883382     0.02600
C1569       C  0.39341152  0.92560985  0.47355185     0.27400
C1570       C  0.41172998  0.94321063  0.45697436    -0.25100
N1571       N  0.41404900  0.91954534  0.34953651    -0.82500
H1572       H  0.37957694  0.89005723  0.38889892     0.13200
C1573       C  0.36487247  0.88502357  0.46566962     0.02600
N1574       N  0.38843585  0.92677677  0.51594719    -0.81100
H1575       H  0.42123932  0.95758839  0.47636703     0.18100
C1576       C  0.37501893  0.85905729  0.46605284    -0.25900
C1577       C  0.35923617  0.83765866  0.47800660     0.36100
C1578       C  0.33261099  0.84225558  0.49021406    -0.20000
C1579       C  0.32304690  0.86864510  0.49194278    -0.25200
C1580       C  0.33876175  0.89002974  0.47913445     0.27500
H1581       H  0.39518975  0.85527982  0.45582178     0.13200
N1582       N  0.37016919  0.81131319  0.47609539    -0.82500
H1583       H  0.30279645  0.87259133  0.50154451     0.18100
N1584       N  0.32801227  0.91658648  0.47839819    -0.81100
H1585       H  0.38708764  0.81054345  0.49439211     0.33700
H1586       H  0.37611378  0.80766779  0.44646268     0.38200
H1587       H  0.32693372  0.92268158  0.44834998     0.33700
H1588       H  0.30854778  0.91688142  0.48955490     0.30400
H1589       H  0.36826814  0.93075256  0.52070733     0.33700
H1590       H  0.39307901  0.90826871  0.52859537     0.30400
H1591       H  0.42781124  0.93378308  0.34040527     0.38200
H1592       H  0.42319864  0.90097218  0.34594645     0.33700
C1593       C  0.15806256  0.75083711  0.36452519    -0.20000
C1594       C  0.14059413  0.77278433  0.36884932     0.36200
C1595       C  0.11430857  0.77149276  0.35401064    -0.26000
C1596       C  0.10505288  0.74914429  0.33303775     0.02600
C1597       C  0.12340815  0.72832153  0.32522921     0.27400
C1598       C  0.14940166  0.72894127  0.34192762    -0.25100
N1599       N  0.14963234  0.79627598  0.38900925    -0.82500
H1600       H  0.10089980  0.78816453  0.35872684     0.13200
C1601       C  0.07733188  0.74994726  0.31530540     0.02600
N1602       N  0.11584644  0.70671710  0.29989246    -0.81100
H1603       H  0.16253127  0.71195340  0.33817692     0.18100
C1604       C  0.07124400  0.77119022  0.28993541    -0.25900
C1605       C  0.04663802  0.77387087  0.27028455     0.36100
C1606       C  0.02560924  0.75479164  0.27641906    -0.20000
C1607       C  0.03198088  0.73357096  0.30314325    -0.25200
C1608       C  0.05700766  0.73105356  0.32279246     0.27500
H1609       H  0.08647764  0.78583608  0.28384347     0.13200
N1610       N  0.04460953  0.79568350  0.24262812    -0.82500
H1611       H  0.01737185  0.71828703  0.30861116     0.18100
N1612       N  0.06076657  0.70917796  0.35019497    -0.81100
H1613       H  0.05990921  0.79411064  0.22140740     0.33700
H1614       H  0.04748312  0.81331851  0.25856874     0.38200
H1615       H  0.07930131  0.70999204  0.36425329     0.33700
H1616       H  0.04665026  0.71119595  0.37312006     0.30400
H1617       H  0.12897585  0.70616992  0.27549244     0.33700
H1618       H  0.11824907  0.68905614  0.31617075     0.30400
H1619       H  0.16539118  0.80402887  0.37221848     0.38200
H1620       H  0.13470848  0.81087214  0.38898046     0.33700
C1621       C  0.34719686  0.74925110  0.37201184    -0.20000
C1622       C  0.36674955  0.72918822  0.37782921     0.36200
C1623       C  0.39165794  0.73103248  0.35835463    -0.26000
C1624       C  0.39772341  0.75257118  0.33309369     0.02600
C1625       C  0.37795025  0.77237014  0.32653528     0.27400
C1626       C  0.35290562  0.77044629  0.34590022    -0.25100
N1627       N  0.36126266  0.70708068  0.40399138    -0.82500
H1628       H  0.40645062  0.71552301  0.36284497     0.13200
C1629       C  0.42433176  0.75351802  0.31232683     0.02600
N1630       N  0.38363895  0.79472521  0.30099807    -0.81100
H1631       H  0.33825010  0.78615706  0.34204444     0.18100
C1632       C  0.42503890  0.75441383  0.27037946    -0.25900
C1633       C  0.44917049  0.75477560  0.24918150     0.36100
C1634       C  0.47420395  0.75399318  0.26978131    -0.20000
C1635       C  0.47331101  0.75340419  0.31229421    -0.25200
C1636       C  0.44877666  0.75319421  0.33355614     0.27500
H1637       H  0.40652535  0.75446107  0.25362770     0.13200
N1638       N  0.44812214  0.75523969  0.20609363    -0.82500
H1639       H  0.49156671  0.75389964  0.32935701     0.18100
N1640       N  0.44859779  0.75311560  0.37676215    -0.81100
H1641       H  0.43753824  0.73863331  0.19640599     0.33700
H1642       H  0.43761625  0.77227942  0.19714902     0.38200
H1643       H  0.46803619  0.75289448  0.38800071     0.33700
H1644       H  0.43988424  0.77098351  0.38613932     0.30400
H1645       H  0.36719488  0.80754431  0.29937125     0.33700
H1646       H  0.39902326  0.80541864  0.31440470     0.30400
H1647       H  0.34553101  0.69644867  0.39142003     0.38200
H1648       H  0.37757318  0.69406601  0.40520701     0.33700
C1649       C  0.24800397  0.84488858  0.36968716    -0.20000
C1650       C  0.26841972  0.85227255  0.34257992     0.36200
C1651       C  0.26830057  0.87821512  0.32522582    -0.26000
C1652       C  0.24834383  0.89715636  0.33461509     0.02600
C1653       C  0.22783667  0.88944399  0.36125817     0.27400
C1654       C  0.22786488  0.86366377  0.37809348    -0.25100
N1655       N  0.28955577  0.83381928  0.33365342    -0.82500
H1656       H  0.28399109  0.88378346  0.30455918     0.13200
C1657       C  0.24846162  0.92472233  0.31605563     0.02600
N1658       N  0.20732876  0.90814374  0.37218859    -0.81100
H1659       H  0.21237036  0.85841848  0.39933228     0.18100
C1660       C  0.22576826  0.93406953  0.29577468    -0.25900
C1661       C  0.22446766  0.95967327  0.27844632     0.36100
C1662       C  0.24761056  0.97610225  0.27687029    -0.20000
C1663       C  0.26897817  0.96795227  0.30209765    -0.25200
C1664       C  0.26983622  0.94255589  0.32092944     0.27500
H1665       H  0.20837827  0.92150804  0.29406268     0.13200
N1666       N  0.19889420  0.96911028  0.26548672    -0.82500
H1667       H  0.28598297  0.98091001  0.30505885     0.18100
N1668       N  0.29236217  0.93488536  0.34504827    -0.81100
H1669       H  0.19121859  0.95551887  0.24486268     0.33700
H1670       H  0.18617503  0.96924365  0.29037978     0.38200
H1671       H  0.30638634  0.95012877  0.34575599     0.33700
H1672       H  0.28564684  0.93237037  0.37457920     0.30400
H1673       H  0.19363358  0.89939011  0.39173322     0.33700
H1674       H  0.21633688  0.92355634  0.38806672     0.30400
H1675       H  0.30018981  0.83038875  0.36022379     0.38200
H1676       H  0.30293514  0.84220291  0.31321304     0.33700
C1677       C  0.26053923  0.65538275  0.36792984    -0.20000
C1678       C  0.28145895  0.63713854  0.37562758     0.36200
C1679       C  0.28094677  0.61136617  0.35933081    -0.26000
C1680       C  0.25981770  0.60287206  0.33496910     0.02600
C1681       C  0.23917995  0.62139775  0.32592862     0.27400
C1682       C  0.23976555  0.64740924  0.34243834    -0.25100
N1683       N  0.30300127  0.64452446  0.40142687    -0.82500
H1684       H  0.29682649  0.59759411  0.36706723     0.13200
C1685       C  0.25947057  0.57463671  0.31950323     0.02600
N1686       N  0.21740771  0.61355700  0.30067596    -0.81100
H1687       H  0.22322217  0.66092558  0.33725638     0.18100
C1688       C  0.23710428  0.55849562  0.32582025    -0.25900
C1689       C  0.23503333  0.53306010  0.30808382     0.36100
C1690       C  0.25506144  0.52362114  0.28127517    -0.20000
C1691       C  0.27956551  0.53747463  0.28292899    -0.25200
C1692       C  0.28155863  0.56320068  0.29951901     0.27500
H1693       H  0.22079336  0.56588562  0.34405630     0.13200
N1694       N  0.21190019  0.51753490  0.31607924    -0.82500
H1695       H  0.29728672  0.52902978  0.26963340     0.18100
N1696       N  0.30575207  0.57800448  0.29483305    -0.81100
H1697       H  0.19505766  0.52875780  0.30832584     0.33700
H1698       H  0.21113326  0.51387865  0.34702641     0.38200
H1699       H  0.32013034  0.56681896  0.27952635     0.33700
H1700       H  0.30146148  0.59449000  0.27667613     0.30400
H1701       H  0.20377155  0.62919576  0.29724645     0.33700
H1702       H  0.22512874  0.60955639  0.27210880     0.30400
H1703       H  0.30362070  0.63110982  0.42548216     0.38200
H1704       H  0.32076261  0.64252190  0.38528359     0.33700
O1705       O  0.75072359  0.19879072  0.38711284    -0.80300
O1706       O  0.74867738  0.20550032  0.61925308    -0.81800
O1707       O  0.79553419  0.17726600  0.50594135    -0.78900
O1708       O  0.71012110  0.17056738  0.50025779    -0.77200
O1709       O  0.67557023  0.20009812  0.49719800    -0.79000
O1710       O  0.82587747  0.21047394  0.50402438    -0.80000
O1711       O  0.75180326  0.17480668  0.56856495    -0.81300
O1712       O  0.75522649  0.17110452  0.44167241    -0.81600
Eu1713     Eu  0.75091798  0.19639293  0.50353726     2.39200
O1714       O  0.72224498  0.22144968  0.54471566    -0.89100
O1715       O  0.77567632  0.22282626  0.45944931    -0.92700
C1716       C  0.75405125  0.17542205  0.40354831     1.02000
C1717       C  0.75095223  0.18122860  0.60589438     1.01800
C1718       C  0.81963372  0.18575838  0.50540896     1.01800
C1719       C  0.68525195  0.17627592  0.49635866     0.99600
H1720       H  0.78713379  0.21508758  0.56114910     0.29400
O1721       O  0.77521080  0.22534275  0.54441744    -1.01500
H1722       H  0.71256364  0.20694120  0.44281767     0.29400
O1723       O  0.72293326  0.21924443  0.45847720    -1.04000
O1724       O  0.74524420  0.29850215  0.61269946    -0.81200
O1725       O  0.74808455  0.29144403  0.38029714    -0.80800
O1726       O  0.82339034  0.25611896  0.56348734    -0.79200
O1727       O  0.67094445  0.24590272  0.56235911    -0.82600
O1728       O  0.67092203  0.24465660  0.43672082    -0.80400
O1729       O  0.82410887  0.24788318  0.43633625    -0.79100
O1730       O  0.78548489  0.32621135  0.49044021    -0.80600
O1731       O  0.70027428  0.32021356  0.49175485    -0.82500
O1732       O  0.81934198  0.29609162  0.49195869    -0.79300
O1733       O  0.67012226  0.28671209  0.49352406    -0.81900
O1734       O  0.79354313  0.25303812  0.61564032    -0.77700
O1735       O  0.79433993  0.24580593  0.38407577    -0.77700
O1736       O  0.70050697  0.24532215  0.38416266    -0.77300
O1737       O  0.69928448  0.25063865  0.61551746    -0.80800
O1738       O  0.74412903  0.32615879  0.55800841    -0.80300
O1739       O  0.74448090  0.32188390  0.43122234    -0.78600
Eu1740     Eu  0.74663447  0.25109320  0.58636417     2.39800
Eu1741     Eu  0.74770182  0.24598221  0.41339341     2.39600
Eu1742     Eu  0.80025730  0.25175817  0.50003428     2.38400
Eu1743     Eu  0.69493153  0.24493417  0.49952307     2.39900
Eu1744     Eu  0.74454305  0.30057027  0.49636763     2.39800
O1745       O  0.71978731  0.27179652  0.45576290    -0.93000
O1746       O  0.77231547  0.27760827  0.54135621    -0.91900
C1747       C  0.74426559  0.32208631  0.59618826     1.02200
C1748       C  0.74639508  0.31566799  0.39390939     1.00900
C1749       C  0.81763706  0.25519116  0.60111198     1.00300
C1750       C  0.67538406  0.24839683  0.60018986     1.02300
C1751       C  0.67637126  0.24534790  0.39901699     1.01200
C1752       C  0.81845177  0.24613904  0.39866213     1.00100
C1753       C  0.81035186  0.32000159  0.48830616     1.00100
C1754       C  0.67630130  0.31142413  0.49075565     1.02700
H1755       H  0.78326736  0.28598281  0.43840286     0.30100
O1756       O  0.77248319  0.27480717  0.45532087    -1.05200
H1757       H  0.70677306  0.28586234  0.55493097     0.32100
O1758       O  0.71892991  0.27450117  0.54028650    -1.07700
N1759       N  0.99546827  0.45606064  0.39801271    -0.36800
N1760       N  0.95612708  0.00065789  0.40639279    -0.57300
N1761       N  0.99903867  0.03843359  0.41461957    -0.36800
N1762       N  0.53618030  0.99522350  0.40485404    -0.57300
C1763       C  0.97286487  0.44330900  0.40844443     0.26800
C1764       C  0.51360853  0.44037912  0.40602594     0.26800
C1765       C  0.97803964  0.05291261  0.42779721     0.26800
C1766       C  0.52398949  0.05200834  0.41900134     0.26800
C1767       C  0.94185411  0.48162955  0.40341655     0.35400
C1768       C  0.94180281  0.02336347  0.40466569     0.35400
C1769       C  0.55176453  0.47149116  0.39747215     0.35400
C1770       C  0.55459830  0.01462928  0.40279487     0.35400
C1771       C  0.97890812  0.41782081  0.42165534    -0.22000
C1772       C  0.50315709  0.41634603  0.41889655    -0.22000
C1773       C  0.98699195  0.07400341  0.45078898    -0.22000
C1774       C  0.51869902  0.07594033  0.43808821    -0.22000
C1775       C  0.91672603  0.49282146  0.39941305    -0.23100
C1776       C  0.91537776  0.01791113  0.39608599    -0.23100
C1777       C  0.57871456  0.47644065  0.39261623    -0.23100
C1778       C  0.57959129  0.00380997  0.39587833    -0.23100
C1779       C  0.94695430  0.45424315  0.40716040    -0.18500
C1780       C  0.54102983  0.44626181  0.40557996    -0.18500
C1781       C  0.54976043  0.04135579  0.41311814    -0.18400
C1782       C  0.95099793  0.04774102  0.41957745    -0.18400
H1783       H  0.96521456  0.40273629  0.43191705     0.14500
H1784       H  0.51391989  0.39892038  0.42927097     0.14500
H1785       H  0.97512562  0.08913240  0.46554609     0.14500
H1786       H  0.53287196  0.08976009  0.45055182     0.14500
H1787       H  0.89808553  0.48258530  0.39494384     0.12700
H1788       H  0.89888551  0.03186233  0.39488952     0.12700
H1789       H  0.59468914  0.46196621  0.39031896     0.12700
H1790       H  0.59834362  0.01420844  0.39411456     0.12700
H1791       H  0.99677145  0.47456195  0.38416773     0.26000
H1792       H  0.99839231  0.02303404  0.39382861     0.26000
O1793       O  0.00483764  0.45099807  0.88737466    -0.80300
O1794       O  0.99955087  0.45691380  0.11895812    -0.81800
O1795       O  0.55075820  0.42946169  0.00747695    -0.78900
O1796       O  0.96582185  0.42326277  0.01200317    -0.77200
O1797       O  0.93105000  0.45257517  0.01045654    -0.79000
O1798       O  0.57989077  0.46395979  0.00448873    -0.80000
O1799       O  0.00537961  0.42648539  0.06842602    -0.81300
O1800       O  0.00858518  0.42385278  0.94222999    -0.81600
Eu1801     Eu  0.00646699  0.44899168  0.00413191     2.39200
O1802       O  0.97762709  0.47405972  0.04446645    -0.89100
O1803       O  0.53015652  0.47523256  0.95820438    -0.92700
C1804       C  0.00729665  0.42750869  0.90398945     1.02000
C1805       C  0.00193042  0.43264678  0.10552113     1.01800
C1806       C  0.57439658  0.43917250  0.00814097     1.01800
C1807       C  0.94091117  0.42907969  0.01481672     0.99600
H1808       H  0.54159362  0.46718638  0.05997685     0.29400
O1809       O  0.52968261  0.47751697  0.04313975    -1.01500
H1810       H  0.96659376  0.45824138  0.94492573     0.29400
O1811       O  0.97711713  0.47095580  0.95961410    -1.04000
O1812       O  0.00223600  0.05054548  0.11297529    -0.81200
O1813       O  0.99729858  0.04475666  0.88028467    -0.80800
O1814       O  0.57681818  0.50614975  0.06254280    -0.79200
O1815       O  0.92526281  0.49806473  0.06421640    -0.82600
O1816       O  0.92346166  0.99618423  0.93689316    -0.80400
O1817       O  0.57838498  0.00334168  0.93579888    -0.79100
O1818       O  0.54107741  0.07911741  0.99775509    -0.80600
O1819       O  0.95286478  0.07449332  0.99736985    -0.82500
O1820       O  0.57458624  0.04864757  0.00132611    -0.79300
O1821       O  0.92298733  0.04082306  0.99804773    -0.81900
O1822       O  0.54847221  0.50365937  0.11603731    -0.77700
O1823       O  0.54870497  0.00084095  0.88358256    -0.77700
O1824       O  0.95259030  0.99643630  0.88370557    -0.77300
O1825       O  0.95348242  0.50265322  0.11752012    -0.80800
O1826       O  0.99896710  0.07823806  0.05857524    -0.80300
O1827       O  0.99695536  0.07544269  0.93126597    -0.78600
Eu1828     Eu  0.00057345  0.50318315  0.08765631     2.39800
Eu1829     Eu  0.99919916  0.99895324  0.91223147     2.39600
Eu1830     Eu  0.55404627  0.50472156  0.99883805     2.38400
Eu1831     Eu  0.94909432  0.49685101  0.00082436     2.39900
Eu1832     Eu  0.99711486  0.05384496  0.99601354     2.39800
O1833       O  0.97196831  0.02554573  0.95503084    -0.93000
O1834       O  0.52750104  0.03056649  0.04048906    -0.91900
C1835       C  0.00130552  0.07414168  0.09660597     1.02200
C1836       C  0.99732264  0.06903626  0.89392567     1.00900
C1837       C  0.57239089  0.50490753  0.10052490     1.00300
C1838       C  0.92960087  0.50069211  0.10211046     1.02300
C1839       C  0.92871348  0.99589791  0.89904179     1.01200
C1840       C  0.57277294  0.00208641  0.89813277     1.00100
C1841       C  0.56580119  0.07271659  0.00108490     1.00100
C1842       C  0.92888494  0.06565890  0.99838446     1.02700
H1843       H  0.53832660  0.03956866  0.93841656     0.30100
O1844       O  0.52754881  0.02816634  0.95494765    -1.05200
H1845       H  0.96085254  0.03911592  0.05632200     0.32100
O1846       O  0.97249788  0.02773455  0.04091950    -1.07700
N1847       N  0.75899280  0.29018767  0.08733954    -0.36800
N1848       N  0.71243126  0.25644794  0.08269010    -0.57300
N1849       N  0.74736350  0.21139190  0.09018529    -0.36800
N1850       N  0.79409731  0.24481689  0.09824417    -0.57300
C1851       C  0.73919728  0.30830895  0.09072230     0.26800
C1852       C  0.78175533  0.30222903  0.09838556     0.26800
C1853       C  0.72357868  0.19924742  0.09281287     0.26800
C1854       C  0.76618985  0.19314370  0.09912820     0.26800
C1855       C  0.70166882  0.27960500  0.07020818     0.35400
C1856       C  0.69544875  0.23731839  0.07118247     0.35400
C1857       C  0.81229905  0.26376646  0.09042123     0.35400
C1858       C  0.80601154  0.22141195  0.08956681     0.35400
C1859       C  0.74939037  0.33214316  0.10437866    -0.22000
C1860       C  0.77635333  0.32835987  0.10896683    -0.22000
C1861       C  0.72727766  0.17302014  0.10467495    -0.22000
C1862       C  0.75431055  0.16913256  0.10851848    -0.22000
C1863       C  0.67738907  0.27528945  0.05153970    -0.23100
C1864       C  0.67342912  0.24836918  0.05218417    -0.23100
C1865       C  0.83626168  0.25233717  0.07885072    -0.23100
C1866       C  0.83221856  0.22545825  0.07798179    -0.23100
C1867       C  0.71286840  0.30465750  0.07745158    -0.18500
C1868       C  0.80741801  0.29128228  0.09330529    -0.18500
C1869       C  0.79344458  0.19645253  0.09124267    -0.18400
C1870       C  0.69945076  0.21005061  0.07836168    -0.18400
H1871       H  0.73867271  0.35061592  0.10903547     0.14500
H1872       H  0.79042010  0.34343678  0.11774613     0.14500
H1873       H  0.71221967  0.15787004  0.10774712     0.14500
H1874       H  0.76420024  0.15042415  0.11503020     0.14500
H1875       H  0.66399075  0.28997397  0.03870424     0.12700
H1876       H  0.65640780  0.23811763  0.03991139     0.12700
H1877       H  0.85453895  0.26231778  0.07087441     0.12700
H1878       H  0.84681018  0.21067539  0.06910655     0.12700
H1879       H  0.75775404  0.27228172  0.07206458     0.26000
H1880       H  0.75095841  0.22918731  0.07543642     0.26000
C1881       C  0.99800432  0.25270362  0.24839048    -0.02600
C1882       C  0.75104207  0.99751607  0.25416432    -0.02600
C1883       C  0.99624403  0.24887880  0.75083691    -0.02600
C1884       C  0.75104243  0.00057859  0.74931362    -0.02600
C1885       C  0.59771301  0.50444273  0.12549877    -0.20000
C1886       C  0.59891626  0.50695063  0.16786485     0.36200
C1887       C  0.62413720  0.50704056  0.18756276    -0.26000
C1888       C  0.64831508  0.50475410  0.16594810     0.02600
C1889       C  0.64665803  0.02104303  0.12614992     0.27400
C1890       C  0.62110786  0.02259058  0.10882713    -0.25100
N1891       N  0.57479754  0.50932709  0.19080824    -0.82500
H1892       H  0.62495070  0.50881143  0.21999415     0.13200
C1893       C  0.67497127  0.50473256  0.18697581     0.02600
N1894       N  0.66902864  0.03323070  0.10651794    -0.81100
H1895       H  0.61857936  0.03398618  0.08138313     0.18100
C1896       C  0.69518165  0.98494503  0.17438608    -0.25900
C1897       C  0.71969261  0.98302229  0.19517491     0.36100
C1898       C  0.72546461  0.50253307  0.22802365    -0.20000
C1899       C  0.70820231  0.52494009  0.23091799    -0.25200
C1900       C  0.68300981  0.52587110  0.21180545     0.27500
H1901       H  0.68991925  0.96966044  0.15298902     0.13200
N1902       N  0.73682444  0.96072515  0.18752878    -0.82500
H1903       H  0.71398222  0.54208835  0.24803179     0.18100
N1904       N  0.66567385  0.54843704  0.21722368    -0.81100
H1905       H  0.74205726  0.96109099  0.15710480     0.33700
H1906       H  0.72613010  0.94332169  0.19289498     0.38200
H1907       H  0.67424516  0.56223425  0.23667314     0.32300
H1908       H  0.66362893  0.55788265  0.18932539     0.30400
H1909       H  0.66310947  0.04242956  0.07970906     0.33700
H1910       H  0.67621522  0.04826087  0.12505008     0.30400
H1911       H  0.56581511  0.52743231  0.18303722     0.38200
H1912       H  0.57909788  0.51035461  0.22152596     0.33700
C1913       C  0.90428090  0.50199176  0.12716840    -0.20000
C1914       C  0.90240505  0.99631365  0.16652106     0.36200
C1915       C  0.87690667  0.99413425  0.18490564    -0.26000
C1916       C  0.85332239  0.50066199  0.16676466     0.02600
C1917       C  0.85510823  0.50683419  0.12554482     0.27400
C1918       C  0.88014718  0.50749994  0.10659169    -0.25100
N1919       N  0.92608138  0.99015284  0.18895864    -0.82500
H1920       H  0.87554167  0.98826901  0.21620668     0.13200
C1921       C  0.82644746  0.49893714  0.18707627     0.02600
N1922       N  0.83130511  0.51189390  0.10261969    -0.81100
H1923       H  0.88056378  0.51207508  0.07477603     0.18100
C1924       C  0.80838126  0.01886810  0.18165360    -0.25900
C1925       C  0.78345350  0.01816973  0.20101042     0.36100
C1926       C  0.77558032  0.49699298  0.22723002    -0.20000
C1927       C  0.79228354  0.47420675  0.22364761    -0.25200
C1928       C  0.81747252  0.47507559  0.20459110     0.27500
H1929       H  0.81397075  0.03677878  0.16567076     0.13200
N1930       N  0.76613722  0.04082106  0.19752523    -0.82500
H1931       H  0.78586485  0.45523865  0.23508752     0.18100
N1932       N  0.83381221  0.45155304  0.20232376    -0.81100
H1933       H  0.76160264  0.04353197  0.16709812     0.33700
H1934       H  0.77641960  0.05760273  0.20728889     0.38200
H1935       H  0.82455225  0.43557217  0.21666286     0.33700
H1936       H  0.83555099  0.44644205  0.17197068     0.30400
H1937       H  0.83590200  0.51645379  0.07272517     0.33700
H1938       H  0.82030757  0.49433728  0.10213855     0.30400
H1939       H  0.93679817  0.00776780  0.19194475     0.38200
H1940       H  0.92119357  0.98404503  0.21811018     0.33700
C1941       C  0.00051126  0.40905082  0.13281229    -0.20000
C1942       C  0.52092300  0.38988436  0.12909874     0.36200
C1943       C  0.51693420  0.36470418  0.14634665    -0.26000
C1944       C  0.99245670  0.35741572  0.16631759     0.02600
C1945       C  0.97238923  0.37722793  0.16945294     0.27400
C1946       C  0.97662874  0.40285057  0.15275475    -0.25100
N1947       N  0.54509562  0.39512553  0.10767151    -0.82500
H1948       H  0.53242363  0.34970904  0.14362390     0.13200
C1949       C  0.98972765  0.33039225  0.18518273     0.02600
N1950       N  0.94750606  0.37098328  0.18848262    -0.81100
H1951       H  0.96070924  0.41749400  0.15330146     0.18100
C1952       C  0.98783558  0.32846108  0.22696537    -0.25900
C1953       C  0.98970518  0.30383272  0.24684227     0.36100
C1954       C  0.99376326  0.27970059  0.22488062    -0.20000
C1955       C  0.49269979  0.28306351  0.18349521    -0.25200
C1956       C  0.49199502  0.30798634  0.16344262     0.27500
H1957       H  0.98628799  0.34644443  0.24468747     0.13200
N1958       N  0.98922158  0.30367489  0.28993146    -0.82500
H1959       H  0.49280403  0.26519221  0.16564954     0.18100
N1960       N  0.49281896  0.30926000  0.12027814    -0.81100
H1961       H  0.97106832  0.31187426  0.29927546     0.33700
H1962       H  0.00447510  0.31586171  0.30040120     0.38200
H1963       H  0.49399710  0.29016729  0.10806997     0.33700
H1964       H  0.47479414  0.31754998  0.11049357     0.30400
H1965       H  0.93478701  0.38752368  0.18814403     0.33700
H1966       H  0.93830074  0.35632932  0.17125297     0.30400
H1967       H  0.54679258  0.38137209  0.08429403     0.38200
H1968       H  0.56105654  0.39203580  0.12736175     0.33700
C1969       C  0.00311388  0.09921503  0.12121827    -0.20000
C1970       C  0.50629026  0.10073568  0.16448381     0.36200
C1971       C  0.50608542  0.12554233  0.18464142    -0.26000
C1972       C  0.00739051  0.14906466  0.16160470     0.02600
C1973       C  0.99788330  0.14808848  0.12190374     0.27400
C1974       C  0.99567625  0.12345995  0.10247149    -0.25100
N1975       N  0.50929299  0.07650290  0.18705265    -0.82500
H1976       H  0.50837698  0.12598780  0.21702504     0.13200
C1977       C  0.00659007  0.17473511  0.18429397     0.02600
N1978       N  0.98999667  0.17217983  0.10159425    -0.81100
H1979       H  0.98779185  0.12339187  0.07216354     0.18100
C1980       C  0.51941477  0.19647823  0.17496158    -0.25900
C1981       C  0.51850763  0.22165861  0.19359453     0.36100
C1982       C  0.00110164  0.22607430  0.22264807    -0.20000
C1983       C  0.98636667  0.20317326  0.23474669    -0.25200
C1984       C  0.98838008  0.17836701  0.21564129     0.27500
H1985       H  0.53429040  0.19286393  0.15195560     0.13200
N1986       N  0.53876328  0.23995054  0.18140263    -0.82500
H1987       H  0.97321197  0.20380049  0.26033779     0.18100
N1988       N  0.97171496  0.15667866  0.22800837    -0.81100
H1989       H  0.53610939  0.24402753  0.15079969     0.33700
H1990       H  0.53702973  0.25785961  0.19614014     0.38200
H1991       H  0.95934756  0.16228029  0.25184910     0.33700
H1992       H  0.95916175  0.15215730  0.20393360     0.30400
H1993       H  0.98372037  0.16818514  0.07226334     0.33700
H1994       H  0.97350574  0.18002319  0.11677564     0.30400
H1995       H  0.52771006  0.06815334  0.17933016     0.38200
H1996       H  0.51013659  0.08047628  0.21787277     0.33700
C1997       C  0.59683235  0.42118263  0.01666142    -0.20000
C1998       C  0.59899237  0.39558481  0.99963968     0.36200
C1999       C  0.62000717  0.37899522  0.01114687    -0.26000
C2000       C  0.63890142  0.38748677  0.03916717     0.02600
C2001       C  0.63766273  0.41335577  0.05487091     0.27400
C2002       C  0.61645834  0.42995186  0.04357360    -0.25100
N2003       N  0.58065979  0.38616578  0.97004456    -0.82500
H2004       H  0.62147857  0.35919866  0.99853044     0.13200
C2005       C  0.65951961  0.36861890  0.05204614     0.02600
N2006       N  0.65818922  0.42284062  0.08125778    -0.81100
H2007       H  0.61496525  0.44966520  0.05641903     0.18100
C2008       C  0.68134991  0.36408959  0.02674480    -0.25900
C2009       C  0.69951925  0.34370464  0.03537230     0.36100
C2010       C  0.69603004  0.32822582  0.07018575    -0.20000
C2011       C  0.67461520  0.33321644  0.09608236    -0.25200
C2012       C  0.65593622  0.35310429  0.08697047     0.27500
H2013       H  0.68361335  0.37567090  0.99942339     0.13200
N2014       N  0.72072479  0.33785220  0.00791097    -0.82500
H2015       H  0.67187371  0.32071231  0.12234330     0.18100
N2016       N  0.63249469  0.35640072  0.11136894    -0.81100
H2017       H  0.73225101  0.35493515  0.00465130     0.33700
H2018       H  0.71233179  0.33348963  0.97994208     0.38200
H2019       H  0.63240408  0.34253225  0.13485950     0.33700
H2020       H  0.63323452  0.37509437  0.12480056     0.30400
H2021       H  0.65449190  0.44260120  0.08927606     0.33700
H2022       H  0.65755972  0.41181649  0.10788159     0.30400
H2023       H  0.57992293  0.39987987  0.94635764     0.38200
H2024       H  0.56180378  0.38473268  0.98304795     0.33700
C2025       C  0.92236516  0.40777958  0.02616155    -0.20000
C2026       C  0.92743240  0.38090591  0.01687465     0.36200
C2027       C  0.90963738  0.36141688  0.02989611    -0.26000
C2028       C  0.88682322  0.36831616  0.05192147     0.02600
C2029       C  0.88177538  0.39509982  0.06164192     0.27400
C2030       C  0.89966861  0.41455856  0.04877320    -0.25100
N2031       N  0.95025670  0.37335873  0.99359465    -0.82500
H2032       H  0.91347872  0.34079239  0.02242652     0.13200
C2033       C  0.86764312  0.34746532  0.06277838     0.02600
N2034       N  0.85838432  0.40242105  0.08410994    -0.81100
H2035       H  0.89593950  0.43511934  0.05674567     0.18100
C2036       C  0.86173420  0.34271794  0.10343629    -0.25900
C2037       C  0.84260323  0.32383934  0.11441711     0.36100
C2038       C  0.82930301  0.30976224  0.08406386    -0.20000
C2039       C  0.83558364  0.31414117  0.04355393    -0.25200
C2040       C  0.85459466  0.33297715  0.03252552     0.27500
H2041       H  0.87191022  0.35393878  0.12648011     0.13200
N2042       N  0.83603924  0.31939182  0.15595152    -0.82500
H2043       H  0.82509147  0.30321016  0.02050061     0.18100
N2044       N  0.86025252  0.33795773  0.99077875    -0.81100
H2045       H  0.84732731  0.33170939  0.17448294     0.33700
H2046       H  0.84145026  0.29983319  0.16305111     0.38200
H2047       H  0.84904778  0.32546000  0.97240999     0.33700
H2048       H  0.85410639  0.35739438  0.98424381     0.30400
H2049       H  0.85782605  0.42292025  0.08915239     0.33700
H2050       H  0.84179794  0.39800826  0.06642002     0.30400
H2051       H  0.96158386  0.35988652  0.01056013     0.38200
H2052       H  0.94364418  0.36357817  0.96780487     0.33700
C2053       C  0.90653825  0.08488840  0.00312888    -0.20000
C2054       C  0.91065096  0.11265814  0.00514468     0.36200
C2055       C  0.88978999  0.12935431  0.01736189    -0.26000
C2056       C  0.86494888  0.11889869  0.02743123     0.02600
C2057       C  0.86003599  0.09167773  0.02294726     0.27400
C2058       C  0.88079293  0.07492904  0.01040124    -0.25100
N2059       N  0.93600244  0.12402970  0.99589145    -0.82500
H2060       H  0.89323954  0.15050289  0.02031048     0.13200
C2061       C  0.84483854  0.13648762  0.04527290     0.02600
N2062       N  0.83425299  0.08110780  0.03242871    -0.81100
H2063       H  0.87704734  0.05380916  0.00841549     0.18100
C2064       C  0.82450081  0.14675486  0.02098693    -0.25900
C2065       C  0.80628178  0.16522231  0.03650821     0.36100
C2066       C  0.80866003  0.17321597  0.07697723    -0.20000
C2067       C  0.82825160  0.16198134  0.10175798    -0.25200
C2068       C  0.84652822  0.14358403  0.08612807     0.27500
H2069       H  0.82342216  0.14096622  0.98966515     0.13200
N2070       N  0.78636447  0.17708360  0.01091467    -0.82500
H2071       H  0.82996807  0.16852793  0.13265821     0.18100
N2072       N  0.86735711  0.13271756  0.11100199    -0.81100
H2073       H  0.78814644  0.16991994  0.98154957     0.33700
H2074       H  0.76777203  0.17091494  0.02132358     0.38200
H2075       H  0.86602888  0.14030076  0.14017778     0.33700
H2076       H  0.86428365  0.11224297  0.11329348     0.30400
H2077       H  0.83383142  0.06065538  0.02710839     0.33700
H2078       H  0.83110260  0.08363429  0.06327217     0.30400
H2079       H  0.94266900  0.13426178  0.02125078     0.38200
H2080       H  0.93332677  0.13781664  0.97261235     0.33700
C2081       C  0.67846534  0.19154568  0.06593432    -0.20000
C2082       C  0.67895019  0.18033289  0.02714742     0.36200
C2083       C  0.65922108  0.16255086  0.01608117    -0.26000
C2084       C  0.63901428  0.15562385  0.04309898     0.02600
C2085       C  0.63835192  0.16698391  0.08178068     0.27400
C2086       C  0.65806359  0.18509377  0.09285197    -0.25100
N2087       N  0.69934813  0.18663289  0.99861103    -0.82500
H2088       H  0.65980523  0.15380079  0.98634037     0.13200
C2089       C  0.62000643  0.13505702  0.03095832     0.02600
N2090       N  0.61826558  0.15953427  0.11015820    -0.81100
H2091       H  0.65776292  0.19375838  0.12264629     0.18100
C2092       C  0.62994606  0.11003939  0.02005775    -0.25900
C2093       C  0.61283940  0.08980276  0.00801969     0.36100
C2094       C  0.58503693  0.09444235  0.00761991    -0.20000
C2095       C  0.57528830  0.11998734  0.01716791    -0.25200
C2096       C  0.59256306  0.14030097  0.02855297     0.27500
H2097       H  0.65119647  0.10614564  0.02107804     0.13200
N2098       N  0.62393155  0.06472945  0.99608081    -0.82500
H2099       H  0.55410720  0.12421623  0.01669123     0.18100
N2100       N  0.58223621  0.16627405  0.03718961    -0.81100
H2101       H  0.63684126  0.06804620  0.97193529     0.33700
H2102       H  0.63517028  0.05716714  0.02002005     0.38200
H2103       H  0.57222133  0.17322846  0.01163122     0.33700
H2104       H  0.56832126  0.16452687  0.06043162     0.30400
H2105       H  0.62772876  0.15165143  0.13558624     0.33700
H2106       H  0.60803776  0.17674965  0.11887274     0.30400
H2107       H  0.69907526  0.20715245  0.99362786     0.38200
H2108       H  0.71777600  0.18136456  0.01097687     0.33700
C2109       C  0.90468367  0.99560381  0.87284501    -0.20000
C2110       C  0.88440612  0.01482825  0.87905090     0.36200
C2111       C  0.85943590  0.01188610  0.86052431    -0.26000
C2112       C  0.85648811  0.49750413  0.83361637     0.02600
C2113       C  0.87759130  0.48056393  0.82132400     0.27400
C2114       C  0.90254819  0.48156367  0.84122980    -0.25100
N2115       N  0.88923798  0.03720300  0.90477773    -0.82500
H2116       H  0.84408197  0.02681742  0.86509724     0.13200
C2117       C  0.82977754  0.49721085  0.81344377     0.02600
N2118       N  0.87335908  0.46200811  0.78925227    -0.81100
H2119       H  0.91828527  0.46780635  0.83292910     0.18100
C2120       C  0.82715672  0.99772869  0.77424318    -0.25900
C2121       C  0.80296713  0.00159114  0.75382977     0.36100
C2122       C  0.77796458  0.99703842  0.77334587    -0.20000
C2123       C  0.78177742  0.48866593  0.81283427    -0.25200
C2124       C  0.80656784  0.48849657  0.83328140     0.27500
H2125       H  0.84565895  0.00209445  0.75885713     0.13200
N2126       N  0.80424188  0.01072357  0.71305998    -0.82500
H2127       H  0.76494942  0.48009000  0.82802357     0.18100
N2128       N  0.80828429  0.47933757  0.87418715    -0.81100
H2129       H  0.81411719  0.02894709  0.71264498     0.33700
H2130       H  0.81560654  0.99711128  0.69653737     0.38200
H2131       H  0.78951752  0.47388101  0.88486490     0.33700
H2132       H  0.82012178  0.46216578  0.87447585     0.30400
H2133       H  0.89066344  0.45090816  0.78387094     0.33700
H2134       H  0.85886344  0.44857939  0.79880794     0.30400
H2135       H  0.90415137  0.04860968  0.89139016     0.38200
H2136       H  0.87232173  0.04937025  0.90667701     0.33700
C2137       C  0.59660889  0.00209132  0.87130455    -0.20000
C2138       C  0.61631895  0.48092556  0.88038023     0.36200
C2139       C  0.64119465  0.48279334  0.86111700    -0.26000
C2140       C  0.64662449  0.00933959  0.83249201     0.02600
C2141       C  0.62434598  0.02524758  0.82154661     0.27400
C2142       C  0.59951782  0.02139829  0.84099632    -0.25100
N2143       N  0.61207370  0.46093992  0.91071404    -0.82500
H2144       H  0.65697577  0.46888993  0.86883935     0.13200
C2145       C  0.67316423  0.01133064  0.81197703     0.02600
N2146       N  0.62717826  0.04561994  0.79149620    -0.81100
H2147       H  0.58281681  0.03433883  0.83392323     0.18100
C2148       C  0.67506075  0.49740860  0.77241218    -0.25900
C2149       C  0.69972120  0.49629956  0.75262554     0.36100
C2150       C  0.72383609  0.00421230  0.77263058    -0.20000
C2151       C  0.72197205  0.01274545  0.81311554    -0.25200
C2152       C  0.69727733  0.01610316  0.83293471     0.27500
H2153       H  0.65713488  0.49292794  0.75566262     0.13200
N2154       N  0.69970375  0.49003099  0.71063798    -0.82500
H2155       H  0.73956156  0.01770972  0.82992793     0.18100
N2156       N  0.69757568  0.02461907  0.87420927    -0.81100
H2157       H  0.69081539  0.47147466  0.70693250     0.33700
H2158       H  0.68801094  0.50420619  0.69564354     0.38200
H2159       H  0.70699782  0.04306793  0.87513776     0.33700
H2160       H  0.67835082  0.02793983  0.88506763     0.30400
H2161       H  0.60905153  0.05553202  0.78692715     0.33700
H2162       H  0.64046883  0.05967972  0.80267407     0.30400
H2163       H  0.59722738  0.44824742  0.90027246     0.38200
H2164       H  0.62919905  0.44930124  0.91476607     0.33700
C2165       C  0.99864907  0.09235246  0.86655914    -0.20000
C2166       C  0.01720191  0.11257258  0.87499512     0.36200
C2167       C  0.01462424  0.13768647  0.85698251    -0.26000
C2168       C  0.49552955  0.14172641  0.82842816     0.02600
C2169       C  0.47384913  0.12391816  0.82627097     0.27400
C2170       C  0.47593117  0.09850754  0.84449466    -0.25100
N2171       N  0.03840799  0.10779961  0.90299115    -0.82500
H2172       H  0.02904186  0.15290613  0.86399933     0.13200
C2173       C  0.49421330  0.16910445  0.81070870     0.02600
N2174       N  0.44952897  0.13206661  0.80690867    -0.81100
H2175       H  0.45886442  0.08546045  0.84489762     0.18100
C2176       C  0.49034960  0.17199584  0.76938643    -0.25900
C2177       C  0.49086800  0.19705543  0.75085423     0.36100
C2178       C  0.99373089  0.22153758  0.77357714    -0.20000
C2179       C  0.99157913  0.21920556  0.81581199    -0.25200
C2180       C  0.99097555  0.19405164  0.83511538     0.27500
H2181       H  0.48767658  0.15448227  0.75096733     0.13200
N2182       N  0.48809841  0.19833831  0.70797610    -0.82500
H2183       H  0.99012915  0.23687658  0.83404470     0.18100
N2184       N  0.98934522  0.19230961  0.87819609    -0.81100
H2185       H  0.50317892  0.18676368  0.69503415     0.33700
H2186       H  0.46977947  0.19003172  0.70025754     0.38200
H2187       H  0.98888402  0.21127556  0.89092853     0.33700
H2188       H  0.97123552  0.18334550  0.88537324     0.30400
H2189       H  0.43551393  0.11682224  0.80810424     0.33700
H2190       H  0.44157605  0.14794841  0.82329396     0.30400
H2191       H  0.03658595  0.12167086  0.92616655     0.38200
H2192       H  0.05645208  0.11120038  0.88823994     0.33700
C2193       C  0.99819502  0.27474408  0.77783331    -0.20000
C2194       C  0.01887148  0.27858027  0.80662789     0.36200
C2195       C  0.02188597  0.30334645  0.82638190    -0.26000
C2196       C  0.00515351  0.32523889  0.81790660     0.02600
C2197       C  0.48081698  0.31787430  0.80232224     0.27400
C2198       C  0.47781513  0.29362830  0.78199353    -0.25100
N2199       N  0.03742666  0.25762531  0.81542471    -0.82500
H2200       H  0.03777954  0.30557718  0.84811008     0.13200
C2201       C  0.00808803  0.35137645  0.83963535     0.02600
N2202       N  0.45823968  0.33525617  0.80628799    -0.81100
H2203       H  0.45909906  0.29147614  0.76673236     0.18100
C2204       C  0.49962900  0.37527944  0.81845484    -0.25900
C2205       C  0.49987198  0.40052276  0.83745095     0.36100
C2206       C  0.00810829  0.40195747  0.87974468    -0.20000
C2207       C  0.00606550  0.37757785  0.90106516    -0.25200
C2208       C  0.00593535  0.35269970  0.88178559     0.27500
H2209       H  0.49079179  0.37360232  0.78888733     0.13200
N2210       N  0.48772055  0.42314665  0.81816768    -0.82500
H2211       H  0.00391154  0.37767048  0.93345814     0.18100
N2212       N  0.00289909  0.32874451  0.90502238    -0.81100
H2213       H  0.48050936  0.41799642  0.78977333     0.33700
H2214       H  0.47113174  0.42869023  0.83528662     0.38200
H2215       H  0.00186255  0.33299608  0.93574704     0.33700
H2216       H  0.98464803  0.32034819  0.89720346     0.30400
H2217       H  0.45127893  0.33997299  0.77748346     0.33700
H2218       H  0.44324001  0.32491311  0.82136840     0.30400
H2219       H  0.03668232  0.25371713  0.84631348     0.38200
H2220       H  0.05654398  0.26437582  0.80861491     0.33700
C2221       C  0.84152745  0.25563153  0.62780790    -0.20000
C2222       C  0.86080839  0.27575365  0.62295162     0.36200
C2223       C  0.88629805  0.27291926  0.64026018    -0.26000
C2224       C  0.89341261  0.25001481  0.66200748     0.02600
C2225       C  0.87433782  0.22966667  0.66665934     0.27400
C2226       C  0.84855171  0.23278742  0.64990670    -0.25100
N2227       N  0.85462430  0.29903684  0.59975196    -0.82500
H2228       H  0.90062867  0.28875177  0.63670678     0.13200
C2229       C  0.91994291  0.24868438  0.68270999     0.02600
N2230       N  0.88152125  0.20558284  0.68743940    -0.81100
H2231       H  0.83441702  0.21668428  0.65210874     0.18100
C2232       C  0.92052433  0.25007557  0.72459251    -0.25900
C2233       C  0.94460658  0.25021883  0.74597895     0.36100
C2234       C  0.96964499  0.24959238  0.72556000    -0.20000
C2235       C  0.96881271  0.24749846  0.68308544    -0.25200
C2236       C  0.94434920  0.24677252  0.66169198     0.27500
H2237       H  0.90193588  0.25129864  0.74107792     0.13200
N2238       N  0.94346505  0.25146183  0.78899096    -0.82500
H2239       H  0.98711039  0.24527396  0.66633945     0.18100
N2240       N  0.94419021  0.24348088  0.61878434    -0.81100
H2241       H  0.93286081  0.26859055  0.79706341     0.33700
H2242       H  0.93287153  0.23499291  0.79936230     0.38200
H2243       H  0.96364819  0.24212551  0.60775306     0.33700
H2244       H  0.93517081  0.22527078  0.61265494     0.30400
H2245       H  0.86546649  0.19248011  0.68801745     0.33700
H2246       H  0.89658859  0.19627835  0.67081318     0.30400
H2247       H  0.85725112  0.31563312  0.61812342     0.38200
H2248       H  0.86830652  0.30023668  0.57612466     0.33700
C2249       C  0.52146604  0.24909999  0.72414893    -0.20000
C2250       C  0.52830556  0.27158567  0.70015849     0.36200
C2251       C  0.55352106  0.27309065  0.68083700    -0.26000
C2252       C  0.57310339  0.25321680  0.68609511     0.02600
C2253       C  0.56703008  0.23121011  0.71020429     0.27400
C2254       C  0.54182673  0.22926907  0.72833375    -0.25100
N2255       N  0.51021602  0.29360408  0.69670737    -0.82500
H2256       H  0.55800064  0.29018970  0.66221671     0.13200
C2257       C  0.59926530  0.25389764  0.66416031     0.02600
N2258       N  0.58694324  0.21097449  0.71708571    -0.81100
H2259       H  0.53941071  0.21246435  0.74805679     0.18100
C2260       C  0.62288766  0.26168580  0.68371882    -0.25900
C2261       C  0.64825821  0.25934703  0.66480868     0.36100
C2262       C  0.65014025  0.24898305  0.62533916    -0.20000
C2263       C  0.62622123  0.24061401  0.60673345    -0.25200
C2264       C  0.60118245  0.24297341  0.62543557     0.27500
H2265       H  0.62153602  0.26928391  0.71409748     0.13200
N2266       N  0.67183218  0.26775656  0.68543444    -0.82500
H2267       H  0.62684651  0.23206036  0.57690675     0.18100
N2268       N  0.57755438  0.23409155  0.60519611    -0.81100
H2269       H  0.66693353  0.27568335  0.71352467     0.33700
H2270       H  0.68341131  0.25080020  0.69107032     0.38200
H2271       H  0.58216320  0.22689291  0.57655070     0.33700
H2272       H  0.56993252  0.21802998  0.62144001     0.30400
H2273       H  0.57990259  0.19630755  0.73663103     0.33700
H2274       H  0.59073319  0.20157374  0.68967124     0.30400
H2275       H  0.50642551  0.29692569  0.66617816     0.38200
H2276       H  0.51963420  0.31044430  0.70808180     0.33700
C2277       C  0.75229438  0.02802809  0.72615198    -0.20000
C2278       C  0.75877389  0.05179129  0.74757872     0.36200
C2279       C  0.75780320  0.07680104  0.72870533    -0.26000
C2280       C  0.75082020  0.07957325  0.68837265     0.02600
C2281       C  0.74445623  0.05660437  0.66627969     0.27400
C2282       C  0.74454431  0.03138409  0.68543780    -0.25100
N2283       N  0.76656850  0.05087106  0.78898382    -0.82500
H2284       H  0.76287459  0.09433884  0.74584851     0.13200
C2285       C  0.75114373  0.10668310  0.66972892     0.02600
N2286       N  0.73771807  0.05900322  0.62441544    -0.81100
H2287       H  0.73748889  0.01474209  0.66831764     0.18100
C2288       C  0.77260657  0.11378210  0.64517353    -0.25900
C2289       C  0.77389451  0.13909082  0.62707948     0.36100
C2290       C  0.75328352  0.15798143  0.63361399    -0.20000
C2291       C  0.73220043  0.15123434  0.65937799    -0.25200
C2292       C  0.73088381  0.12569745  0.67737275     0.27500
H2293       H  0.78830730  0.09934816  0.63975140     0.13200
N2294       N  0.79568268  0.14548429  0.60075446    -0.82500
H2295       H  0.71599152  0.16528094  0.66354295     0.18100
N2296       N  0.70870294  0.11870634  0.70246386    -0.81100
H2297       H  0.80617772  0.16111272  0.61380023     0.33700
H2298       H  0.80896930  0.12946390  0.59850377     0.38200
H2299       H  0.69546862  0.13474744  0.70501326     0.33700
H2300       H  0.69834542  0.10351911  0.68802812     0.30400
H2301       H  0.73389841  0.04033328  0.61207654     0.33700
H2302       H  0.72001084  0.06997205  0.62240477     0.30400
H2303       H  0.78567796  0.05882085  0.79137382     0.38200
H2304       H  0.75353476  0.06299083  0.80537606     0.33700
C2305       C  0.74377767  0.34695295  0.62137176    -0.20000
C2306       C  0.73311592  0.37119789  0.60574078     0.36200
C2307       C  0.73659951  0.39519078  0.62682815    -0.26000
C2308       C  0.74980571  0.39594886  0.66392410     0.02600
C2309       C  0.75912780  0.37164450  0.68073797     0.27400
C2310       C  0.75608332  0.34752875  0.65931598    -0.25100
N2311       N  0.71855432  0.37145874  0.56845274    -0.82500
H2312       H  0.72851288  0.41349722  0.61447002     0.13200
C2313       C  0.75223238  0.42214621  0.68550380     0.02600
N2314       N  0.77212768  0.37156667  0.71922885    -0.81100
H2315       H  0.76419058  0.32926260  0.67173021     0.18100
C2316       C  0.74286992  0.42436360  0.72488305    -0.25900
C2317       C  0.74371441  0.44849106  0.74594500     0.36100
C2318       C  0.75204374  0.47254207  0.72666623    -0.20000
C2319       C  0.76317048  0.46967281  0.68777548    -0.25200
C2320       C  0.76333893  0.44496955  0.66720981     0.27500
H2321       H  0.73476635  0.40704677  0.73982703     0.13200
N2322       N  0.73605469  0.44812934  0.78743298    -0.82500
H2323       H  0.77224701  0.48646212  0.67316518     0.18100
N2324       N  0.77520330  0.44288579  0.62799454    -0.81100
H2325       H  0.71650005  0.44125640  0.78939796     0.33700
H2326       H  0.74842202  0.43463856  0.80263434     0.38200
H2327       H  0.78266783  0.46124568  0.61868716     0.33700
H2328       H  0.79154395  0.42997960  0.63038521     0.30400
H2329       H  0.77764320  0.35224366  0.72754910     0.33700
H2330       H  0.78970800  0.38239138  0.71630974     0.30400
H2331       H  0.70131742  0.36026970  0.57273738     0.38200
H2332       H  0.71228612  0.39071987  0.56102331     0.33700
C2333       C  0.93106701  0.06691812  0.43476004    -0.20000
C2334       C  0.92036572  0.06390610  0.47374907     0.36200
C2335       C  0.90338592  0.08340037  0.48900619    -0.26000
C2336       C  0.89667234  0.10576815  0.46589092     0.02600
C2337       C  0.90684775  0.10859995  0.42654393     0.27400
C2338       C  0.92425347  0.08912845  0.41139811    -0.25100
N2339       N  0.92684582  0.04145261  0.49860929    -0.82500
H2340       H  0.89542496  0.08116563  0.51912238     0.13200
C2341       C  0.87805694  0.12560863  0.48252797     0.02600
N2342       N  0.89934459  0.13114640  0.40226854    -0.81100
H2343       H  0.93262927  0.09125603  0.38153371     0.18100
C2344       C  0.88638731  0.15191928  0.48717571    -0.25900
C2345       C  0.86825097  0.17198415  0.49808954     0.36100
C2346       C  0.84112219  0.16538725  0.50381849    -0.20000
C2347       C  0.83369504  0.13847365  0.50314697    -0.25200
C2348       C  0.85172989  0.11860563  0.49182109     0.27500
H2349       H  0.90696568  0.15687517  0.48109793     0.13200
N2350       N  0.87721395  0.19892068  0.50206905    -0.82500
H2351       H  0.81326711  0.13291457  0.50899437     0.18100
N2352       N  0.84309444  0.09155092  0.48781234    -0.81100
H2353       H  0.89753057  0.20029047  0.49557684     0.33700
H2354       H  0.87500420  0.20422986  0.53227399     0.38200
H2355       H  0.82308316  0.08974011  0.49597542     0.33700
H2356       H  0.84429827  0.08656403  0.45735846     0.30400
H2357       H  0.90860837  0.13023721  0.37414009     0.33700
H2358       H  0.87885434  0.13004273  0.39702803     0.30400
H2359       H  0.94748789  0.04067601  0.50247605     0.38200
H2360       H  0.92087950  0.02419131  0.48384891     0.33700
C2361       C  0.57266493  0.05820666  0.42444887    -0.20000
C2362       C  0.58220564  0.05820495  0.46439241     0.36200
C2363       C  0.60111512  0.07684063  0.47601685    -0.26000
C2364       C  0.61088249  0.09545903  0.44845897     0.02600
C2365       C  0.60221624  0.09494615  0.40807429     0.27400
C2366       C  0.58298077  0.07629877  0.39645105    -0.25100
N2367       N  0.57242506  0.03992531  0.49392821    -0.82500
H2368       H  0.60799937  0.07706157  0.50690667     0.13200
C2369       C  0.62994309  0.11558579  0.46260782     0.02600
N2370       N  0.61263781  0.11361827  0.37939385    -0.81100
H2371       H  0.57547738  0.07628591  0.36589706     0.18100
C2372       C  0.65647750  0.11382254  0.45023307    -0.25900
C2373       C  0.67511315  0.13284772  0.46220464     0.36100
C2374       C  0.66691251  0.15417832  0.48719859    -0.20000
C2375       C  0.64034438  0.15552869  0.50024685    -0.25200
C2376       C  0.62177607  0.13632092  0.48831459     0.27500
H2377       H  0.66253880  0.09771014  0.43062738     0.13200
N2378       N  0.70203669  0.13110486  0.44768637    -0.82500
H2379       H  0.63399971  0.17179264  0.51934902     0.18100
N2380       N  0.59460141  0.13790516  0.50172696    -0.81100
H2381       H  0.70494934  0.14722938  0.42834361     0.33700
H2382       H  0.70484780  0.11399932  0.43038036     0.38200
H2383       H  0.59187314  0.15419490  0.52076431     0.33700
H2384       H  0.58266057  0.14133958  0.47645663     0.30400
H2385       H  0.60433070  0.11045372  0.35098956     0.33700
H2386       H  0.60663232  0.13263542  0.38834731     0.30400
H2387       H  0.57612622  0.02060540  0.48381239     0.38200
H2388       H  0.55184834  0.04259196  0.49662445     0.33700
C2389       C  0.55941521  0.42569579  0.42098248    -0.20000
C2390       C  0.56804311  0.42629157  0.46141036     0.36200
C2391       C  0.58561981  0.40680586  0.47525630    -0.26000
C2392       C  0.59412223  0.38646315  0.44967094     0.02600
C2393       C  0.58454940  0.38499472  0.40993925     0.27400
C2394       C  0.56725101  0.40486700  0.39577234    -0.25100
N2395       N  0.55898242  0.44626960  0.48894463    -0.82500
H2396       H  0.59294627  0.40766892  0.50588742     0.13200
C2397       C  0.61493283  0.36815000  0.46353509     0.02600
N2398       N  0.59249417  0.36336448  0.38435881    -0.81100
H2399       H  0.55990998  0.40424660  0.36514936     0.18100
C2400       C  0.60792885  0.34365149  0.48015661    -0.25900
C2401       C  0.62760550  0.32508296  0.49081989     0.36100
C2402       C  0.65473226  0.33115246  0.48427533    -0.20000
C2403       C  0.66148133  0.35633597  0.46895919    -0.25200
C2404       C  0.64179213  0.37488354  0.45854443     0.27500
H2405       H  0.58711515  0.33878889  0.48425513     0.13200
N2406       N  0.61986807  0.30012774  0.50790493    -0.82500
H2407       H  0.68213730  0.36137814  0.46381806     0.18100
N2408       N  0.64883901  0.40049089  0.44261215    -0.81100
H2409       H  0.60717741  0.29069251  0.48762060     0.33700
H2410       H  0.60910198  0.30392992  0.53420088     0.38200
H2411       H  0.66948260  0.40276386  0.44244336     0.33700
H2412       H  0.64258623  0.40129123  0.41263907     0.30400
H2413       H  0.58322988  0.36499176  0.35629174     0.33700
H2414       H  0.61295130  0.36494237  0.37921278     0.30400
H2415       H  0.53819747  0.44561206  0.49025228     0.38200
H2416       H  0.56457707  0.46490675  0.47805399     0.33700
C2417       C  0.92433524  0.43692459  0.41785515    -0.20000
C2418       C  0.91093034  0.42173366  0.38877355     0.36200
C2419       C  0.89036234  0.40488601  0.40082502    -0.26000
C2420       C  0.88316630  0.40291558  0.44149083     0.02600
C2421       C  0.89631725  0.41845209  0.47042839     0.27400
C2422       C  0.91667029  0.43541010  0.45833952    -0.25100
N2423       N  0.91813710  0.42284197  0.34713959    -0.82500
H2424       H  0.88045010  0.39272823  0.37862576     0.13200
C2425       C  0.86424074  0.38231480  0.45396288     0.02600
N2426       N  0.88976548  0.41683684  0.51229739    -0.81100
H2427       H  0.92701568  0.44706475  0.48071649     0.18100
C2428       C  0.87405671  0.35673450  0.46132616    -0.25900
C2429       C  0.85712800  0.33632868  0.47366954     0.36100
C2430       C  0.82956634  0.34154714  0.47888385    -0.20000
C2431       C  0.81994786  0.36757701  0.47181585    -0.25200
C2432       C  0.83707925  0.38789529  0.45930593     0.27500
H2433       H  0.89510004  0.35255688  0.45735539     0.13200
N2434       N  0.86817430  0.31035324  0.48028764    -0.82500
H2435       H  0.79897165  0.37220198  0.47523007     0.18100
N2436       N  0.82685554  0.41406980  0.45166262    -0.81100
H2437       H  0.88303036  0.31179996  0.50217524     0.33700
H2438       H  0.87708216  0.30399784  0.45352941     0.38200
H2439       H  0.81212733  0.41266536  0.42957028     0.33700
H2440       H  0.81784725  0.42096262  0.47802649     0.30400
H2441       H  0.86964299  0.42177919  0.51569431     0.33700
H2442       H  0.89256328  0.39720867  0.52189142     0.30400
H2443       H  0.91620243  0.44252575  0.33734429     0.38200
H2444       H  0.93813668  0.41721531  0.34449488     0.33700
C2445       C  0.65207595  0.24730532  0.37296864    -0.20000
C2446       C  0.63214609  0.26636292  0.38264845     0.36200
C2447       C  0.60669652  0.26487887  0.36510532    -0.26000
C2448       C  0.60042995  0.24514479  0.33714301     0.02600
C2449       C  0.62059277  0.22689929  0.32580801     0.27400
C2450       C  0.64608063  0.22782955  0.34416277    -0.25100
N2451       N  0.63786917  0.28726117  0.41063521    -0.82500
H2452       H  0.59163691  0.27952645  0.37288332     0.13200
C2453       C  0.57401802  0.24686372  0.31618419     0.02600
N2454       N  0.61541162  0.20772931  0.29515480    -0.81100
H2455       H  0.66091449  0.21292902  0.33661894     0.18100
C2456       C  0.56945891  0.26870161  0.29127293    -0.25900
C2457       C  0.54534947  0.27262950  0.27071303     0.36100
C2458       C  0.52366014  0.25421068  0.27542796    -0.20000
C2459       C  0.52859999  0.23237259  0.30166340    -0.25200
C2460       C  0.55316222  0.22864307  0.32211716     0.27500
H2461       H  0.58532718  0.28293243  0.28690728     0.13200
N2462       N  0.54437743  0.29496450  0.24389138    -0.82500
H2463       H  0.51315992  0.21772910  0.30584767     0.18100
N2464       N  0.55663522  0.20682141  0.34964924    -0.81100
H2465       H  0.55996991  0.29327434  0.22317697     0.33700
H2466       H  0.54761836  0.31220228  0.26062049     0.38200
H2467       H  0.53913726  0.19577203  0.35175511     0.33700
H2468       H  0.57110147  0.19409227  0.33771789     0.30400
H2469       H  0.62908617  0.21070487  0.27189119     0.33700
H2470       H  0.61887883  0.18882369  0.30727638     0.30400
H2471       H  0.65292169  0.29891187  0.39813161     0.38200
H2472       H  0.62132308  0.29977488  0.41407868     0.33700
C2473       C  0.84217219  0.24436397  0.37153792    -0.20000
C2474       C  0.86176993  0.22444237  0.37807116     0.36200
C2475       C  0.88674245  0.22605050  0.35860536    -0.26000
C2476       C  0.89287729  0.24724925  0.33266399     0.02600
C2477       C  0.87295812  0.26678792  0.32518903     0.27400
C2478       C  0.84785489  0.26508070  0.34453262    -0.25100
N2479       N  0.85634046  0.20284303  0.40522593    -0.82500
H2480       H  0.90161556  0.21073314  0.36390434     0.13200
C2481       C  0.91992387  0.24845774  0.31289173     0.02600
N2482       N  0.87860034  0.28878825  0.29893929    -0.81100
H2483       H  0.83319005  0.28072182  0.34013231     0.18100
C2484       C  0.92156394  0.24854329  0.27095192    -0.25900
C2485       C  0.94616270  0.24958560  0.25082945     0.36100
C2486       C  0.97076700  0.25092691  0.27251724    -0.20000
C2487       C  0.96889619  0.25080118  0.31501296    -0.25200
C2488       C  0.94394074  0.24940578  0.33516689     0.27500
H2489       H  0.90343566  0.24743803  0.25337010     0.13200
N2490       N  0.94602291  0.24874739  0.20775144    -0.82500
H2491       H  0.98669961  0.25253142  0.33293780     0.18100
N2492       N  0.94289358  0.24936805  0.37834765    -0.81100
H2493       H  0.93664713  0.23125878  0.19877474     0.33700
H2494       H  0.93471969  0.26484966  0.19718416     0.38200
H2495       H  0.96207784  0.25000291  0.39047599     0.33700
H2496       H  0.93318654  0.26682379  0.38728428     0.30400
H2497       H  0.86205921  0.30144193  0.29666584     0.33700
H2498       H  0.89380895  0.29982296  0.31216438     0.30400
H2499       H  0.84061550  0.19194183  0.39317174     0.38200
H2500       H  0.87267652  0.18989113  0.40698551     0.33700
C2501       C  0.74597900  0.33921870  0.36675751    -0.20000
C2502       C  0.76824612  0.34707399  0.34366230     0.36200
C2503       C  0.76884993  0.37300335  0.32658313    -0.26000
C2504       C  0.74841827  0.39174349  0.33434212     0.02600
C2505       C  0.72692921  0.38386136  0.35884300     0.27400
C2506       C  0.72550389  0.35779666  0.37346564    -0.25100
N2507       N  0.79059545  0.32931213  0.33928951    -0.82500
H2508       H  0.78559743  0.37880771  0.30809478     0.13200
C2509       C  0.74897060  0.41938617  0.31684473     0.02600
N2510       N  0.70726105  0.40285579  0.37132633    -0.81100
H2511       H  0.70898363  0.35256707  0.39289370     0.18100
C2512       C  0.72593343  0.42949208  0.29842983    -0.25900
C2513       C  0.72435586  0.45562658  0.28369814     0.36100
C2514       C  0.74765418  0.47176069  0.28186861    -0.20000
C2515       C  0.76968985  0.46260455  0.30488020    -0.25200
C2516       C  0.77079621  0.43661311  0.32123812     0.27500
H2517       H  0.70838774  0.41717035  0.29643458     0.13200
N2518       N  0.69844348  0.46580910  0.27385960    -0.82500
H2519       H  0.78705390  0.47510291  0.30773744     0.18100
N2520       N  0.79411998  0.42792301  0.34238792    -0.81100
H2521       H  0.68982021  0.45318170  0.25269950     0.33700
H2522       H  0.68667351  0.46497199  0.29977449     0.38200
H2523       H  0.81033745  0.42939174  0.32280165     0.33700
H2524       H  0.79728694  0.44096924  0.36628442     0.30400
H2525       H  0.68851302  0.39573978  0.36322994     0.33700
H2526       H  0.70806025  0.40414672  0.40265959     0.30400
H2527       H  0.79884417  0.32628420  0.36784300     0.38200
H2528       H  0.80542675  0.33816226  0.32182597     0.33700
C2529       C  0.75649988  0.15093881  0.37842791    -0.20000
C2530       C  0.77703673  0.13232891  0.38648565     0.36200
C2531       C  0.77652490  0.10687909  0.36916878    -0.26000
C2532       C  0.75574784  0.09906569  0.34363946     0.02600
C2533       C  0.73518377  0.11772601  0.33507271     0.27400
C2534       C  0.73585820  0.14347042  0.35236023    -0.25100
N2535       N  0.79835924  0.13908245  0.41308315    -0.82500
H2536       H  0.79229890  0.09288248  0.37651728     0.13200
C2537       C  0.75620492  0.07154511  0.32577214     0.02600
N2538       N  0.71351415  0.11037542  0.30929157    -0.81100
H2539       H  0.71959675  0.15729167  0.34697243     0.18100
C2540       C  0.73461792  0.05424921  0.33112503    -0.25900
C2541       C  0.73387189  0.02910957  0.31217619     0.36100
C2542       C  0.75444110  0.02122453  0.28514816    -0.20000
C2543       C  0.77801783  0.03656043  0.28676994    -0.25200
C2544       C  0.77864083  0.06193552  0.30462836     0.27500
H2545       H  0.71797845  0.06043467  0.34969457     0.13200
N2546       N  0.71147642  0.01228879  0.31900876    -0.82500
H2547       H  0.79607853  0.02957913  0.27265232     0.18100
N2548       N  0.80182604  0.07830129  0.30019656    -0.81100
H2549       H  0.69416730  0.02281177  0.31137602     0.33700
H2550       H  0.71064261  0.00798410  0.34976129     0.38200
H2551       H  0.81665673  0.06840943  0.28388458     0.33700
H2552       H  0.79631491  0.09493970  0.28312124     0.30400
H2553       H  0.69989908  0.12608580  0.30641860     0.33700
H2554       H  0.72134132  0.10691944  0.28063243     0.30400
H2555       H  0.79850563  0.12529075  0.43665921     0.38200
H2556       H  0.81629183  0.13705740  0.39737294     0.33700
O2557       O  0.75261390  0.69885910  0.38737027    -0.80300
O2558       O  0.74702334  0.70398471  0.61924133    -0.81800
O2559       O  0.79582250  0.67499309  0.50419491    -0.78900
O2560       O  0.71016910  0.67060497  0.49940707    -0.77200
O2561       O  0.67571901  0.70009331  0.49566398    -0.79000
O2562       O  0.82562118  0.70866391  0.50303825    -0.80000
O2563       O  0.75026845  0.67374361  0.56806489    -0.81300
O2564       O  0.75549046  0.67076302  0.44167091    -0.81600
Eu2565     Eu  0.75132217  0.69553405  0.50358100     2.39200
O2566       O  0.72222688  0.72082734  0.54382249    -0.89100
O2567       O  0.77658391  0.72184736  0.46024823    -0.92700
C2568       C  0.75523999  0.67539274  0.40365380     1.02000
C2569       C  0.74902563  0.67976522  0.60547627     1.01800
C2570       C  0.81982801  0.68387532  0.50285436     1.01800
C2571       C  0.68533768  0.67625416  0.49525560     0.99600
H2572       H  0.78705380  0.71319750  0.56255819     0.29400
O2573       O  0.77537963  0.72377527  0.54577167    -1.01500
H2574       H  0.71371887  0.70668087  0.44209951     0.29400
O2575       O  0.72392760  0.71886344  0.45820248    -1.04000
O2576       O  0.74553785  0.79739474  0.61392302    -0.81200
O2577       O  0.74868335  0.79140886  0.38168720    -0.80800
O2578       O  0.82315222  0.75294874  0.56633621    -0.79200
O2579       O  0.67122842  0.74656808  0.56134495    -0.82600
O2580       O  0.67283965  0.74415504  0.43323500    -0.80400
O2581       O  0.82506286  0.74647946  0.43802884    -0.79100
O2582       O  0.78725620  0.82391832  0.49394153    -0.80600
O2583       O  0.70060570  0.81991744  0.48976982    -0.82500
O2584       O  0.82099099  0.79362402  0.49650386    -0.79300
O2585       O  0.67074964  0.78622215  0.48960760    -0.81900
O2586       O  0.79252112  0.75141068  0.61761891    -0.77700
O2587       O  0.79563111  0.74537203  0.38529372    -0.77700
O2588       O  0.70372255  0.74419494  0.38235365    -0.77300
O2589       O  0.69920920  0.75075500  0.61511740    -0.80800
O2590       O  0.74427664  0.82526508  0.55947023    -0.80300
O2591       O  0.74485969  0.82194903  0.43246582    -0.78600
Eu2592     Eu  0.74632938  0.74992564  0.58672244     2.39800
Eu2593     Eu  0.74937663  0.74573757  0.41426189     2.39600
Eu2594     Eu  0.80072752  0.75016724  0.50182316     2.38400
Eu2595     Eu  0.69532576  0.74460456  0.49819427     2.39900
Eu2596     Eu  0.74511588  0.80003842  0.49730614     2.39800
O2597       O  0.72099938  0.77143224  0.45579435    -0.93000
O2598       O  0.77235445  0.77626029  0.54223022    -0.91900
C2599       C  0.74451205  0.82108937  0.59765612     1.02200
C2600       C  0.74656326  0.81564840  0.39514594     1.00900
C2601       C  0.81680801  0.75269382  0.60380152     1.00300
C2602       C  0.67545821  0.74938966  0.59925354     1.02300
C2603       C  0.67935232  0.74425352  0.39578171     1.01200
C2604       C  0.81957513  0.74518685  0.40018735     1.00100
C2605       C  0.81213615  0.81752691  0.49315860     1.00100
C2606       C  0.67668084  0.81097245  0.48681250     1.02700
H2607       H  0.78477281  0.78557772  0.44033443     0.30100
O2608       O  0.77373088  0.77429755  0.45697285    -1.05200
H2609       H  0.70684492  0.78524326  0.55452772     0.32100
O2610       O  0.71906164  0.77376413  0.54019825    -1.07700
N2611       N  0.99347377  0.95668206  0.40325902    -0.36800
N2612       N  0.96005628  0.50061842  0.41062868    -0.57300
N2613       N  0.00441375  0.53761098  0.41145740    -0.36800
N2614       N  0.53824865  0.49450918  0.40189111    -0.57300
C2615       C  0.97087469  0.94383421  0.41328050     0.26800
C2616       C  0.51083470  0.94135488  0.40718739     0.26800
C2617       C  0.98497896  0.55278832  0.42786816     0.26800
C2618       C  0.52547083  0.55033788  0.41976300     0.26800
C2619       C  0.93882566  0.98071542  0.40054722     0.35400
C2620       C  0.94652193  0.52383571  0.41184665     0.35400
C2621       C  0.54944341  0.97205317  0.39996943     0.35400
C2622       C  0.55652788  0.51404291  0.40078825     0.35400
C2623       C  0.97711996  0.91886068  0.42859922    -0.22000
C2624       C  0.49997891  0.91714275  0.41823416    -0.22000
C2625       C  0.99613006  0.57458190  0.44670774    -0.22000
C2626       C  0.51980169  0.57331431  0.44113965    -0.22000
C2627       C  0.91346394  0.99077824  0.39370001    -0.23100
C2628       C  0.91967123  0.51962227  0.40480526    -0.23100
C2629       C  0.57635253  0.97679685  0.39428618    -0.23100
C2630       C  0.58171938  0.50347007  0.39453770    -0.23100
C2631       C  0.94474400  0.95393632  0.40890107    -0.18500
C2632       C  0.53841659  0.94670264  0.40655966    -0.18500
C2633       C  0.55136181  0.54039972  0.41261173    -0.18400
C2634       C  0.95740971  0.54801619  0.42492930    -0.18400
H2635       H  0.96350524  0.90375622  0.43903774     0.14500
H2636       H  0.51050449  0.89922281  0.42713316     0.14500
H2637       H  0.98582846  0.59049806  0.46220566     0.14500
H2638       H  0.53376258  0.58683251  0.45484665     0.14500
H2639       H  0.89525118  0.97968151  0.38999524     0.12700
H2640       H  0.90370689  0.53417817  0.40521722     0.12700
H2641       H  0.59215105  0.96223490  0.39089073     0.12700
H2642       H  0.60045155  0.51396741  0.39409802     0.12700
H2643       H  0.99484343  0.97469766  0.38799268     0.26000
H2644       H  0.00163711  0.52167946  0.39212853     0.26000
O2645       O  0.00006146  0.95174434  0.88508103    -0.80300
O2646       O  0.00004843  0.95785734  0.11822565    -0.81800
O2647       O  0.55041624  0.92982506  0.01114309    -0.78900
O2648       O  0.96140696  0.92468991  0.01150747    -0.77200
O2649       O  0.92791639  0.95548478  0.01249638    -0.79000
O2650       O  0.58021609  0.96337338  0.00593748    -0.80000
O2651       O  0.00335722  0.92699140  0.06776291    -0.81300
O2652       O  0.00164410  0.92377836  0.93950304    -0.81600
Eu2653     Eu  0.00267335  0.94880297  0.00206188     2.39200
O2654       O  0.97574027  0.97530178  0.04330212    -0.89100
O2655       O  0.53078932  0.97501940  0.95938779    -0.92700
C2656       C  0.00054713  0.92806749  0.90130819     1.02000
C2657       C  0.00162470  0.93349468  0.10511950     1.01800
C2658       C  0.57432676  0.93879501  0.01118151     1.01800
C2659       C  0.93691971  0.93155709  0.01616269     0.99600
H2660       H  0.54252831  0.96811236  0.06215362     0.29400
O2661       O  0.53070317  0.97832867  0.04519756    -1.01500
H2662       H  0.96310989  0.96005730  0.94384386     0.29400
O2663       O  0.97434689  0.97234774  0.95817121    -1.04000
O2664       O  0.00095454  0.55016141  0.11504594    -0.81200
O2665       O  0.99957550  0.54426290  0.88178972    -0.80800
O2666       O  0.57918707  0.00738768  0.06175135    -0.79200
O2667       O  0.92485167  0.00125088  0.06297597    -0.82600
O2668       O  0.92542294  0.49551471  0.93735915    -0.80400
O2669       O  0.57743751  0.50279672  0.93495382    -0.79100
O2670       O  0.53954358  0.57921381  0.99716359    -0.80600
O2671       O  0.95166833  0.57184524  0.99624611    -0.82500
O2672       O  0.57360078  0.54938739  0.00010732    -0.79300
O2673       O  0.92251846  0.53743438  0.99864376    -0.81900
O2674       O  0.55037033  0.00622415  0.11511327    -0.77700
O2675       O  0.54783068  0.49970599  0.88265106    -0.77700
O2676       O  0.95486439  0.49739789  0.88471787    -0.77300
O2677       O  0.95356546  0.00387794  0.11602929    -0.80800
O2678       O  0.99814414  0.57791812  0.06058788    -0.80300
O2679       O  0.99646304  0.57516787  0.93227393    -0.78600
Eu2680     Eu  0.00070728  0.00351521  0.08580113     2.39800
Eu2681     Eu  0.00145163  0.49842839  0.91435413     2.39600
Eu2682     Eu  0.55495384  0.00447267  0.99951059     2.38400
Eu2683     Eu  0.94776403  0.99903589  0.99975662     2.39900
Eu2684     Eu  0.99657457  0.55327524  0.99745421     2.39800
O2685       O  0.97289099  0.52396571  0.95641083    -0.93000
O2686       O  0.52614177  0.52991393  0.04028787    -0.91900
C2687       C  0.99998598  0.57378480  0.09878322     1.02200
C2688       C  0.99815109  0.56865061  0.89499725     1.00900
C2689       C  0.57431191  0.00741526  0.09964186     1.00300
C2690       C  0.92953989  0.00301722  0.10076872     1.02300
C2691       C  0.93082884  0.49691843  0.89961650     1.01200
C2692       C  0.57184994  0.50081961  0.89732488     1.00100
C2693       C  0.56450946  0.57341310  0.99967006     1.00100
C2694       C  0.92798058  0.56234513  0.99740286     1.02700
H2695       H  0.53730696  0.53947680  0.93748847     0.30100
O2696       O  0.52659720  0.52794454  0.95387665    -1.05200
H2697       H  0.96009751  0.53769302  0.05721176     0.32100
O2698       O  0.97223675  0.52667194  0.04221081    -1.07700
N2699       N  0.75686491  0.79109015  0.10040474    -0.36800
N2700       N  0.71117137  0.75685049  0.08781745    -0.57300
N2701       N  0.74807366  0.71307651  0.07857925    -0.36800
N2702       N  0.79368286  0.74706230  0.09558543    -0.57300
C2703       C  0.73666297  0.80789115  0.10900291     0.26800
C2704       C  0.77955536  0.80282645  0.11244956     0.26800
C2705       C  0.72470598  0.69992296  0.07900858     0.26800
C2706       C  0.76770643  0.69483166  0.08266464     0.26800
C2707       C  0.69964225  0.78083267  0.08189088     0.35400
C2708       C  0.69469835  0.73889324  0.07114228     0.35400
C2709       C  0.81107213  0.76729873  0.09237399     0.35400
C2710       C  0.80645991  0.72539820  0.08133609     0.35400
C2711       C  0.74650016  0.83039100  0.12763516    -0.22000
C2712       C  0.77371343  0.82724213  0.12960902    -0.22000
C2713       C  0.72952169  0.67294404  0.08394002    -0.22000
C2714       C  0.75673705  0.66971715  0.08618076    -0.22000
C2715       C  0.67541940  0.77799884  0.06233129    -0.23100
C2716       C  0.67221114  0.75134821  0.05578528    -0.23100
C2717       C  0.83531538  0.75826299  0.07775603    -0.23100
C2718       C  0.83239212  0.73166007  0.07070703    -0.23100
C2719       C  0.71051746  0.80521627  0.09444538    -0.18500
C2720       C  0.80523765  0.79392498  0.10203305    -0.18500
C2721       C  0.79509537  0.69999127  0.07779452    -0.18400
C2722       C  0.69966716  0.71135309  0.06980922    -0.18400
H2723       H  0.73536484  0.84785252  0.13676814     0.14500
H2724       H  0.78768456  0.84177280  0.14063329     0.14500
H2725       H  0.71500495  0.65715467  0.08417495     0.14500
H2726       H  0.76730653  0.65095044  0.08849462     0.14500
H2727       H  0.66161615  0.79349002  0.05320703     0.12700
H2728       H  0.65553103  0.74225218  0.04066547     0.12700
H2729       H  0.85310175  0.76970896  0.07212970     0.12700
H2730       H  0.84749119  0.71858162  0.05835918     0.12700
H2731       H  0.75572820  0.77522518  0.08065991     0.26000
H2732       H  0.75073381  0.73255950  0.06927345     0.26000
C2733       C  0.99867102  0.75358907  0.25091637    -0.02600
C2734       C  0.75044758  0.49816940  0.25631630    -0.02600
C2735       C  0.99677384  0.74907680  0.74928385    -0.02600
C2736       C  0.75141641  0.49977147  0.75023252    -0.02600
C2737       C  0.59907628  0.00883023  0.12500598    -0.20000
C2738       C  0.60311796  0.99351029  0.16021225     0.36200
C2739       C  0.62865297  0.99277850  0.17855579    -0.26000
C2740       C  0.65045482  0.00638927  0.16182043     0.02600
C2741       C  0.64701967  0.50218574  0.12386923     0.27400
C2742       C  0.62218443  0.50175902  0.10455306    -0.25100
N2743       N  0.58187870  0.97757439  0.17587458    -0.82500
H2744       H  0.63171675  0.98116991  0.20568488     0.13200
C2745       C  0.67706270  0.00565356  0.18213485     0.02600
N2746       N  0.67110068  0.50041203  0.10053608    -0.81100
H2747       H  0.62229756  0.49953578  0.07219372     0.18100
C2748       C  0.69343032  0.48416973  0.17960579    -0.25900
C2749       C  0.71849466  0.48321561  0.19875060     0.36100
C2750       C  0.72648581  0.00202905  0.22516995    -0.20000
C2751       C  0.70962329  0.02468718  0.22789332    -0.25200
C2752       C  0.68472385  0.02607361  0.20841530     0.27500
H2753       H  0.68812312  0.46818964  0.15944460     0.13200
N2754       N  0.73614948  0.46150838  0.19009628    -0.82500
H2755       H  0.71527140  0.04159663  0.24558778     0.18100
N2756       N  0.66672213  0.04777732  0.21650734    -0.81100
H2757       H  0.74052804  0.46202361  0.15936548     0.33700
H2758       H  0.72623481  0.44374785  0.19617326     0.38200
H2759       H  0.67477905  0.06061111  0.23788564     0.32300
H2760       H  0.66443529  0.05887446  0.19013636     0.30400
H2761       H  0.66686470  0.49819659  0.06995051     0.33700
H2762       H  0.68111411  0.51843919  0.10350742     0.30400
H2763       H  0.56718528  0.99050192  0.18670044     0.38200
H2764       H  0.58847863  0.96637293  0.20051614     0.33700
C2765       C  0.90430400  0.00401611  0.12568793    -0.20000
C2766       C  0.90263546  0.49671209  0.16899609     0.36200
C2767       C  0.87722466  0.49578091  0.18814095    -0.26000
C2768       C  0.85314940  0.99947702  0.16346411     0.02600
C2769       C  0.85513231  0.00754865  0.12299262     0.27400
C2770       C  0.88031995  0.01038600  0.10521587    -0.25100
N2771       N  0.92645707  0.49180402  0.19179328    -0.82500
H2772       H  0.87603717  0.49131078  0.21998173     0.13200
C2773       C  0.82632453  0.99736790  0.18352779     0.02600
N2774       N  0.83145119  0.01214455  0.09953302    -0.81100
H2775       H  0.88098053  0.01691093  0.07415544     0.18100
C2776       C  0.80858574  0.52058762  0.18563242    -0.25900
C2777       C  0.78323255  0.51954497  0.20401817     0.36100
C2778       C  0.77621573  0.99603000  0.22545903    -0.20000
C2779       C  0.79307339  0.97330623  0.22286492    -0.25200
C2780       C  0.81795145  0.97389839  0.20289704     0.27500
H2781       H  0.81444191  0.53867604  0.17035262     0.13200
N2782       N  0.76580061  0.54210954  0.20069066    -0.82500
H2783       H  0.78707794  0.95464105  0.23586042     0.18100
N2784       N  0.83464429  0.95057946  0.20190447    -0.81100
H2785       H  0.76181886  0.54529341  0.17018849     0.33700
H2786       H  0.77575732  0.55878640  0.21155379     0.38200
H2787       H  0.82586772  0.93495893  0.21778312     0.33700
H2788       H  0.83605543  0.94448381  0.17194569     0.30400
H2789       H  0.83625242  0.01795494  0.07021439     0.33700
H2790       H  0.82148707  0.99404257  0.09719453     0.30400
H2791       H  0.93725995  0.50948078  0.19218746     0.38200
H2792       H  0.92175231  0.48752408  0.22174820     0.33700
C2793       C  0.00136629  0.91038838  0.13356136    -0.20000
C2794       C  0.52515291  0.89643142  0.14144668     0.36200
C2795       C  0.52283630  0.87063485  0.15748431    -0.26000
C2796       C  0.99503584  0.85966214  0.17127928     0.02600
C2797       C  0.97537106  0.87981401  0.17590971     0.27400
C2798       C  0.97871637  0.90492261  0.15697067    -0.25100
N2799       N  0.55072488  0.90612985  0.12954041    -0.82500
H2800       H  0.54058095  0.85852709  0.16146750     0.13200
C2801       C  0.99229586  0.83238802  0.18977383     0.02600
N2802       N  0.95170353  0.87443950  0.19872807    -0.81100
H2803       H  0.96295454  0.91969472  0.15865149     0.18100
C2804       C  0.98967431  0.82987424  0.23144546    -0.25900
C2805       C  0.99056984  0.80488194  0.25057951     0.36100
C2806       C  0.99435310  0.78090032  0.22797010    -0.20000
C2807       C  0.49748670  0.78424157  0.17954984    -0.25200
C2808       C  0.49738064  0.80971347  0.16102018     0.27500
H2809       H  0.98830609  0.84761673  0.24973756     0.13200
N2810       N  0.98965879  0.80417522  0.29365021    -0.82500
H2811       H  0.49706504  0.76684825  0.16069461     0.18100
N2812       N  0.49864930  0.81222371  0.11801182    -0.81100
H2813       H  0.97167347  0.81280140  0.30286467     0.33700
H2814       H  0.00519497  0.81573234  0.30480769     0.38200
H2815       H  0.49966740  0.79348126  0.10460738     0.33700
H2816       H  0.48085957  0.82107028  0.10835954     0.30400
H2817       H  0.93924035  0.89116849  0.19929088     0.33700
H2818       H  0.94126953  0.85952466  0.18379076     0.30400
H2819       H  0.55867129  0.89309391  0.10817700     0.38200
H2820       H  0.56316629  0.90573400  0.15474747     0.33700
C2821       C  0.00085091  0.59875138  0.12400714    -0.20000
C2822       C  0.50785018  0.60053691  0.16150632     0.36200
C2823       C  0.50918192  0.62570857  0.18057101    -0.26000
C2824       C  0.00367387  0.64866021  0.16528852     0.02600
C2825       C  0.99223181  0.64718791  0.12672489     0.27400
C2826       C  0.99104922  0.62259410  0.10670529    -0.25100
N2827       N  0.51376648  0.57671894  0.18380382    -0.82500
H2828       H  0.51440972  0.62678672  0.21212848     0.13200
C2829       C  0.00406402  0.67470417  0.18760026     0.02600
N2830       N  0.98137710  0.67073344  0.10815787    -0.81100
H2831       H  0.98204922  0.62214525  0.07712006     0.18100
C2832       C  0.52104436  0.69637257  0.16936881    -0.25900
C2833       C  0.52034690  0.72156889  0.18837238     0.36100
C2834       C  0.00111409  0.72651560  0.22580093    -0.20000
C2835       C  0.98807565  0.70337436  0.24124873    -0.25200
C2836       C  0.98922879  0.67821723  0.22286586     0.27500
H2837       H  0.53564358  0.69267451  0.14600936     0.13200
N2838       N  0.54012079  0.74066800  0.17779817    -0.82500
H2839       H  0.97709426  0.70419328  0.26910273     0.18100
N2840       N  0.97527969  0.65607546  0.24018583    -0.81100
H2841       H  0.55882156  0.73234400  0.18395793     0.33700
H2842       H  0.53901388  0.74409139  0.14680545     0.38200
H2843       H  0.96565473  0.66157041  0.26680297     0.33700
H2844       H  0.96039137  0.65052868  0.21998566     0.30400
H2845       H  0.97385952  0.66647220  0.07959471     0.33700
H2846       H  0.96518603  0.67702277  0.12555658     0.30400
H2847       H  0.53124700  0.56855045  0.17186855     0.38200
H2848       H  0.51788429  0.58121733  0.21383223     0.33700
C2849       C  0.59656571  0.92035072  0.02071360    -0.20000
C2850       C  0.59421993  0.89231068  0.01863799     0.36200
C2851       C  0.61507050  0.87628291  0.03235569    -0.26000
C2852       C  0.63819303  0.88739805  0.04837750     0.02600
C2853       C  0.64136585  0.91507338  0.04893714     0.27400
C2854       C  0.62054385  0.93130340  0.03500630    -0.25100
N2855       N  0.57122815  0.87937252  0.00266074    -0.82500
H2856       H  0.61305599  0.85485947  0.03117119     0.13200
C2857       C  0.65863627  0.86945209  0.06484369     0.02600
N2858       N  0.66544258  0.92651883  0.06433429    -0.81100
H2859       H  0.62280511  0.95265914  0.03679156     0.18100
C2860       C  0.68287452  0.86668868  0.04448658    -0.25900
C2861       C  0.70082299  0.84659975  0.05544262     0.36100
C2862       C  0.69458825  0.82954019  0.08766542    -0.20000
C2863       C  0.67119292  0.83348984  0.10979146    -0.25200
C2864       C  0.65294566  0.85329527  0.09842885     0.27500
H2865       H  0.68714028  0.87912806  0.01863044     0.13200
N2866       N  0.72461560  0.84250119  0.03243837    -0.82500
H2867       H  0.66657862  0.82015826  0.13444937     0.18100
N2868       N  0.62818715  0.85644218  0.11965153    -0.81100
H2869       H  0.73570583  0.85998629  0.03336981     0.33700
H2870       H  0.71916371  0.83911451  0.00255349     0.38200
H2871       H  0.62691227  0.84270659  0.14322894     0.33700
H2872       H  0.62813081  0.87531006  0.13271492     0.30400
H2873       H  0.66464349  0.94725453  0.06238005     0.33700
H2874       H  0.66665380  0.92179507  0.09492853     0.30400
H2875       H  0.56735406  0.88688489  0.97387401     0.38200
H2876       H  0.55494427  0.88293937  0.02146997     0.33700
C2877       C  0.91824531  0.91079859  0.02914131    -0.20000
C2878       C  0.92088928  0.88431592  0.01600528     0.36200
C2879       C  0.90369079  0.86492501  0.03106528    -0.26000
C2880       C  0.88392674  0.87152534  0.05916529     0.02600
C2881       C  0.88159880  0.89782231  0.07316695     0.27400
C2882       C  0.89875361  0.91726604  0.05785993    -0.25100
N2883       N  0.94056149  0.87716833  0.98669793    -0.82500
H2884       H  0.90541762  0.84469260  0.02022768     0.13200
C2885       C  0.86418045  0.85131829  0.07060266     0.02600
N2886       N  0.86167725  0.90468080  0.10249202    -0.81100
H2887       H  0.89714826  0.93748057  0.06881072     0.18100
C2888       C  0.86200520  0.84298916  0.11084172    -0.25900
C2889       C  0.84273172  0.82427963  0.12223148     0.36100
C2890       C  0.82549622  0.81415835  0.09277660    -0.20000
C2891       C  0.82767062  0.82254444  0.05273035    -0.25200
C2892       C  0.84684333  0.84107534  0.04129429     0.27500
H2893       H  0.87537359  0.85106527  0.13318586     0.13200
N2894       N  0.84033618  0.81573635  0.16334114    -0.82500
H2895       H  0.81428509  0.81449977  0.03035951     0.18100
N2896       N  0.84866264  0.84977626  0.00013635    -0.81100
H2897       H  0.85439163  0.82528833  0.18130197     0.33700
H2898       H  0.84491517  0.79544650  0.16441345     0.38200
H2899       H  0.83458920  0.84011432  0.98234439     0.33700
H2900       H  0.84379773  0.87000840  0.99931661     0.30400
H2901       H  0.86283892  0.92481167  0.10992561     0.33700
H2902       H  0.84302802  0.90192246  0.08925316     0.30400
H2903       H  0.95287219  0.86246967  0.99919246     0.38200
H2904       H  0.93081768  0.86898976  0.96191740     0.33700
C2905       C  0.90570261  0.58134917  0.00068379    -0.20000
C2906       C  0.90794912  0.60779212  0.98687879     0.36200
C2907       C  0.88876048  0.62664147  0.99821422    -0.26000
C2908       C  0.86742615  0.61931475  0.02285840     0.02600
C2909       C  0.86398371  0.59262948  0.03389098     0.27400
C2910       C  0.88305034  0.57377641  0.02255535    -0.25100
N2911       N  0.92974635  0.61558027  0.96175212    -0.82500
H2912       H  0.89091285  0.64715125  0.98876867     0.13200
C2913       C  0.84898786  0.63976576  0.03759528     0.02600
N2914       N  0.84146699  0.58482138  0.05748696    -0.81100
H2915       H  0.88081166  0.55348755  0.03291413     0.18100
C2916       C  0.82979851  0.65008054  0.01126967    -0.25900
C2917       C  0.81157559  0.66923996  0.02448018     0.36100
C2918       C  0.81258773  0.67806207  0.06452337    -0.20000
C2919       C  0.83193587  0.66792851  0.09084593    -0.25200
C2920       C  0.85035307  0.64879887  0.07765968     0.27500
H2921       H  0.82902319  0.64324726  0.98041220     0.13200
N2922       N  0.79239290  0.68019535  0.99707463    -0.82500
H2923       H  0.83291150  0.67537915  0.12134855     0.18100
N2924       N  0.87095817  0.63924550  0.10416410    -0.81100
H2925       H  0.80265968  0.68869091  0.97294401     0.33700
H2926       H  0.78091995  0.66460647  0.98595145     0.38200
H2927       H  0.86974668  0.64877567  0.13200917     0.33700
H2928       H  0.86754834  0.61912470  0.10976330     0.30400
H2929       H  0.83096419  0.57053002  0.04132629     0.33700
H2930       H  0.84848010  0.57585498  0.08389430     0.30400
H2931       H  0.94003417  0.63077858  0.97625825     0.38200
H2932       H  0.92195569  0.62326537  0.93493395     0.33700
C2933       C  0.67808320  0.69382717  0.05545123    -0.20000
C2934       C  0.67736050  0.68513176  0.01513680     0.36200
C2935       C  0.65692378  0.66835254  0.00250408    -0.26000
C2936       C  0.63701103  0.66024799  0.02937590     0.02600
C2937       C  0.63735326  0.66952021  0.06930430     0.27400
C2938       C  0.65779167  0.68637960  0.08200275    -0.25100
N2939       N  0.69720122  0.69303564  0.98662179    -0.82500
H2940       H  0.65690436  0.66107283  0.97186609     0.13200
C2941       C  0.61837520  0.63907825  0.01735091     0.02600
N2942       N  0.61751216  0.66100325  0.09737518    -0.81100
H2943       H  0.65813954  0.69325721  0.11284850     0.18100
C2944       C  0.62839585  0.61317283  0.01414012    -0.25900
C2945       C  0.61149311  0.59160975  0.00746943     0.36100
C2946       C  0.58370492  0.59588419  0.00342827    -0.20000
C2947       C  0.57392150  0.62225651  0.00481685    -0.25200
C2948       C  0.59096364  0.64388083  0.01171666     0.27500
H2949       H  0.64953214  0.60952524  0.01817881     0.13200
N2950       N  0.62280365  0.56542771  0.00569521    -0.82500
H2951       H  0.55280691  0.62609613  0.00126736     0.18100
N2952       N  0.58062638  0.67061320  0.01225077    -0.81100
H2953       H  0.63681976  0.56504029  0.98244517     0.33700
H2954       H  0.63279195  0.56170429  0.03275615     0.38200
H2955       H  0.56018577  0.67073566  0.00628656     0.33700
H2956       H  0.58282396  0.67806759  0.04131545     0.30400
H2957       H  0.62713274  0.65134604  0.12122617     0.33700
H2958       H  0.60798168  0.67790694  0.10881029     0.30400
H2959       H  0.69728409  0.71379270  0.98509420     0.38200
H2960       H  0.71580700  0.68658722  0.99698619     0.33700
C2961       C  0.90676288  0.49917089  0.87326099    -0.20000
C2962       C  0.88584687  0.51680962  0.88431914     0.36200
C2963       C  0.86104536  0.51565030  0.86464131    -0.26000
C2964       C  0.85403406  0.99015017  0.83576643     0.02600
C2965       C  0.87426612  0.97094213  0.82907067     0.27400
C2966       C  0.89948276  0.97389880  0.84761039    -0.25100
N2967       N  0.88984843  0.53572360  0.91606901    -0.82500
H2968       H  0.84510966  0.52902671  0.87353112     0.13200
C2969       C  0.82791802  0.98961161  0.81428446     0.02600
N2970       N  0.86896103  0.94836395  0.80406280    -0.81100
H2971       H  0.91467087  0.95871786  0.84375635     0.18100
C2972       C  0.82762879  0.50612303  0.77384854    -0.25900
C2973       C  0.80301072  0.50706557  0.75376499     0.36100
C2974       C  0.77889325  0.49912646  0.77346000    -0.20000
C2975       C  0.77929458  0.98664814  0.81301320    -0.25200
C2976       C  0.80375230  0.98394047  0.83399534     0.27500
H2977       H  0.84535697  0.51272016  0.75823830     0.13200
N2978       N  0.80293197  0.51643197  0.71303837    -0.82500
H2979       H  0.76147885  0.98025049  0.82811717     0.18100
N2980       N  0.80413145  0.97568439  0.87541120    -0.81100
H2981       H  0.81035897  0.53579662  0.71268826     0.33700
H2982       H  0.81586217  0.50444173  0.69626469     0.38200
H2983       H  0.78476863  0.97268552  0.88595344     0.33700
H2984       H  0.81392413  0.95730471  0.87689312     0.30400
H2985       H  0.88579049  0.93606687  0.80225756     0.33700
H2986       H  0.85412033  0.93722960  0.81816227     0.30400
H2987       H  0.90461307  0.54889229  0.90662674     0.38200
H2988       H  0.87263467  0.54708651  0.92086887     0.33700
C2989       C  0.59564951  0.49912609  0.87067098    -0.20000
C2990       C  0.61876882  0.98576257  0.88118520     0.36200
C2991       C  0.64332183  0.98954721  0.86174736    -0.26000
C2992       C  0.64618609  0.50263771  0.83249201     0.02600
C2993       C  0.62533305  0.52035184  0.82167863     0.27400
C2994       C  0.60018623  0.51834155  0.84074244    -0.25100
N2995       N  0.61630653  0.96554188  0.91162169    -0.82500
H2996       H  0.66013430  0.97691186  0.86948507     0.13200
C2997       C  0.67308523  0.50375321  0.81308471     0.02600
N2998       N  0.63003599  0.54073354  0.79219897    -0.81100
H2999       H  0.58461259  0.53264366  0.83379378     0.18100
C3000       C  0.67464376  0.00514962  0.77116131    -0.25900
C3001       C  0.69918802  0.00182344  0.75144853     0.36100
C3002       C  0.72409706  0.50096584  0.77374390    -0.20000
C3003       C  0.72162965  0.50863399  0.81450984    -0.25200
C3004       C  0.69674340  0.50997992  0.83428422     0.27500
H3005       H  0.65643206  0.00185357  0.75447413     0.13200
N3006       N  0.69873625  0.99549368  0.70951695    -0.82500
H3007       H  0.73878794  0.51471184  0.83147411     0.18100
N3008       N  0.69638309  0.51826894  0.87564833    -0.81100
H3009       H  0.68815060  0.97785714  0.70583651     0.33700
H3010       H  0.68845767  0.01066051  0.69438376     0.38200
H3011       H  0.70403275  0.53752187  0.87672763     0.33700
H3012       H  0.67703137  0.51962173  0.88686981     0.30400
H3013       H  0.61283825  0.55219740  0.78773112     0.33700
H3014       H  0.64444200  0.55347484  0.80385305     0.30400
H3015       H  0.60270296  0.95153983  0.90117096     0.38200
H3016       H  0.63439220  0.95548029  0.91578710     0.33700
C3017       C  0.99944155  0.59192142  0.86713697    -0.20000
C3018       C  0.01987844  0.61075541  0.87229462     0.36200
C3019       C  0.01788448  0.63612088  0.85445768    -0.26000
C3020       C  0.49405808  0.64240141  0.83011146     0.02600
C3021       C  0.47405292  0.62314699  0.82354191     0.27400
C3022       C  0.47660658  0.59752547  0.84103206    -0.25100
N3023       N  0.04259528  0.60426050  0.89656851    -0.82500
H3024       H  0.03381999  0.65020821  0.85891790     0.13200
C3025       C  0.49241424  0.66983977  0.81252930     0.02600
N3026       N  0.45087740  0.62996157  0.80024170    -0.81100
H3027       H  0.46057666  0.58336835  0.83813696     0.18100
C3028       C  0.49108670  0.67265942  0.77088542    -0.25900
C3029       C  0.49196486  0.69770002  0.75242023     0.36100
C3030       C  0.99528570  0.72180216  0.77294430    -0.20000
C3031       C  0.99597730  0.71960279  0.81535557    -0.25200
C3032       C  0.99615942  0.69449323  0.83510075     0.27500
H3033       H  0.49015288  0.65508736  0.75218316     0.13200
N3034       N  0.49130245  0.69876451  0.70935895    -0.82500
H3035       H  0.99609113  0.73732375  0.83351061     0.18100
N3036       N  0.99794586  0.69303389  0.87818269    -0.81100
H3037       H  0.50715571  0.68738955  0.69822811     0.33700
H3038       H  0.47355913  0.69011209  0.69970363     0.38200
H3039       H  0.99934058  0.71205625  0.89051876     0.33700
H3040       H  0.98019058  0.68488906  0.88882416     0.30400
H3041       H  0.43807679  0.61372642  0.79826737     0.33700
H3042       H  0.44053475  0.64487439  0.81567092     0.30400
H3043       H  0.04367676  0.61810038  0.91987854     0.38200
H3044       H  0.05963729  0.60628417  0.87879089     0.33700
C3045       C  0.99775515  0.77550633  0.77541057    -0.20000
C3046       C  0.01845497  0.78107281  0.80345730     0.36200
C3047       C  0.01922418  0.80581091  0.82402751    -0.26000
C3048       C  0.00056004  0.82616388  0.81606376     0.02600
C3049       C  0.48503543  0.82113224  0.79587302     0.27400
C3050       C  0.48136051  0.79670042  0.77643656    -0.25100
N3051       N  0.03938090  0.76212106  0.81026540    -0.82500
H3052       H  0.03487084  0.80931649  0.84574983     0.13200
C3053       C  0.00107696  0.85231792  0.83774827     0.02600
N3054       N  0.46583430  0.84203829  0.79046693    -0.81100
H3055       H  0.46479703  0.79610665  0.75586662     0.18100
C3056       C  0.51325209  0.87514382  0.81998796    -0.25900
C3057       C  0.51294306  0.90037304  0.83914224     0.36100
C3058       C  0.99925187  0.90313317  0.87626551    -0.20000
C3059       C  0.98785751  0.88033262  0.89406152    -0.25200
C3060       C  0.98830416  0.85530201  0.87516560     0.27500
H3061       H  0.51503957  0.87411075  0.78755922     0.13200
N3062       N  0.51612156  0.92417891  0.81573447    -0.82500
H3063       H  0.97839689  0.88201612  0.92321634     0.18100
N3064       N  0.97565674  0.83287161  0.89382111    -0.81100
H3065       H  0.51984207  0.91949895  0.78562912     0.33700
H3066       H  0.49794658  0.93441798  0.81618706     0.38200
H3067       H  0.96731290  0.83825469  0.92145795     0.33700
H3068       H  0.95981187  0.82724609  0.87539087     0.30400
H3069       H  0.46460580  0.84639337  0.75975455     0.33700
H3070       H  0.44730679  0.83501310  0.79989736     0.30400
H3071       H  0.04008166  0.75781683  0.84103180     0.38200
H3072       H  0.05739421  0.77100795  0.80233759     0.33700
C3073       C  0.84009275  0.75376532  0.63141755    -0.20000
C3074       C  0.85700214  0.77604429  0.63044683     0.36200
C3075       C  0.88254720  0.77471229  0.64796927    -0.26000
C3076       C  0.89193360  0.75120938  0.66608183     0.02600
C3077       C  0.87499398  0.72889637  0.66750556     0.27400
C3078       C  0.84924334  0.73040152  0.65027833    -0.25100
N3079       N  0.84840963  0.79993974  0.61065285    -0.82500
H3080       H  0.89521622  0.79204074  0.64705425     0.13200
C3081       C  0.91893302  0.75046711  0.68529380     0.02600
N3082       N  0.88435125  0.70457059  0.68553867    -0.81100
H3083       H  0.83685574  0.71286985  0.64962933     0.18100
C3084       C  0.92048633  0.74932290  0.72711778    -0.25900
C3085       C  0.94506120  0.74847207  0.74710590     0.36100
C3086       C  0.96962904  0.74915494  0.72528727    -0.20000
C3087       C  0.96781159  0.74946682  0.68280546    -0.25200
C3088       C  0.94281406  0.75017178  0.66277912     0.27500
H3089       H  0.90229280  0.74922373  0.74466725     0.13200
N3090       N  0.94493657  0.74756974  0.79019671    -0.82500
H3091       H  0.98572206  0.74846328  0.66491316     0.18100
N3092       N  0.94156356  0.75015890  0.61961468    -0.81100
H3093       H  0.93446818  0.76416137  0.80079462     0.33700
H3094       H  0.93470720  0.73053437  0.79922517     0.38200
H3095       H  0.96072569  0.74981194  0.60733538     0.33700
H3096       H  0.93241992  0.73250082  0.61083776     0.30400
H3097       H  0.86971014  0.68995420  0.68395768     0.33700
H3098       H  0.90046768  0.69772492  0.66845296     0.30400
H3099       H  0.84895132  0.81540367  0.63154530     0.38200
H3100       H  0.86202503  0.80424274  0.58780112     0.33700
C3101       C  0.52269763  0.74943240  0.72683827    -0.20000
C3102       C  0.52946813  0.77144170  0.70192709     0.36200
C3103       C  0.55443769  0.77246613  0.68221895    -0.26000
C3104       C  0.57358459  0.75207139  0.68645030     0.02600
C3105       C  0.56726366  0.73013180  0.71085215     0.27400
C3106       C  0.54274805  0.72943524  0.73130688    -0.25100
N3107       N  0.51144356  0.79342903  0.69752862    -0.82500
H3108       H  0.55906123  0.78968787  0.66394194     0.13200
C3109       C  0.60000151  0.75347226  0.66499341     0.02600
N3110       N  0.58590840  0.70844433  0.71499556    -0.81100
H3111       H  0.54028330  0.71316845  0.75207050     0.18100
C3112       C  0.62411649  0.74981057  0.68627953    -0.25900
C3113       C  0.64913174  0.74860079  0.66639705     0.36100
C3114       C  0.65030232  0.75171294  0.62412161    -0.20000
C3115       C  0.62607214  0.75657034  0.60345148    -0.25200
C3116       C  0.60124418  0.75709053  0.62302520     0.27500
H3117       H  0.62335697  0.74735808  0.71863677     0.13200
N3118       N  0.67305297  0.74381689  0.68903283    -0.82500
H3119       H  0.62621815  0.75953084  0.57119156     0.18100
N3120       N  0.57719102  0.76060488  0.60006438    -0.81100
H3121       H  0.66878309  0.74253488  0.71975772     0.33700
H3122       H  0.68049587  0.72520091  0.68057020     0.38200
H3123       H  0.58148044  0.76330215  0.56955245     0.33700
H3124       H  0.56631741  0.74302308  0.60230250     0.30400
H3125       H  0.57854246  0.69381986  0.73434229     0.33700
H3126       H  0.58794731  0.69955272  0.68677401     0.30400
H3127       H  0.50739904  0.79599237  0.66691627     0.38200
H3128       H  0.52100624  0.81051051  0.70776852     0.33700
C3129       C  0.74984172  0.52708693  0.72700282    -0.20000
C3130       C  0.75437042  0.55128879  0.74842999     0.36200
C3131       C  0.75252907  0.57603671  0.72915607    -0.26000
C3132       C  0.74575357  0.57819919  0.68870159     0.02600
C3133       C  0.74009012  0.55482232  0.66701972     0.27400
C3134       C  0.74201217  0.52968015  0.68624068    -0.25100
N3135       N  0.76137611  0.55104299  0.79017622    -0.82500
H3136       H  0.75691494  0.59386485  0.74605370     0.13200
C3137       C  0.74649318  0.60503781  0.66927954     0.02600
N3138       N  0.73207421  0.55675632  0.62561636    -0.81100
H3139       H  0.73649389  0.51242193  0.66917558     0.18100
C3140       C  0.76622617  0.61005194  0.64065754    -0.25900
C3141       C  0.76869596  0.63518812  0.62254811     0.36100
C3142       C  0.75064844  0.65601026  0.63250630    -0.20000
C3143       C  0.73139736  0.65133198  0.66233544    -0.25200
C3144       C  0.72923395  0.62602327  0.68095734     0.27500
H3145       H  0.77993123  0.59421585  0.63255167     0.13200
N3146       N  0.78923102  0.63956874  0.59311760    -0.82500
H3147       H  0.71725874  0.66693944  0.66965988     0.18100
N3148       N  0.70923672  0.62133541  0.71101186    -0.81100
H3149       H  0.80206820  0.65394104  0.60457989     0.33700
H3150       H  0.80063392  0.62234465  0.58880418     0.38200
H3151       H  0.69810396  0.63862586  0.71616751     0.33700
H3152       H  0.69606857  0.60725479  0.69956064     0.30400
H3153       H  0.72854991  0.53788952  0.61376191     0.33700
H3154       H  0.71390913  0.56702880  0.62475216     0.30400
H3155       H  0.77991022  0.56013082  0.79334828     0.38200
H3156       H  0.74729668  0.56240622  0.80582365     0.33700
C3157       C  0.74378990  0.84608395  0.62288472    -0.20000
C3158       C  0.73171758  0.86977189  0.60759232     0.36200
C3159       C  0.73462823  0.89410059  0.62807584    -0.26000
C3160       C  0.74874533  0.89584496  0.66429170     0.02600
C3161       C  0.75990910  0.87217077  0.68064990     0.27400
C3162       C  0.75731132  0.84763622  0.65989072    -0.25100
N3163       N  0.71630732  0.86911809  0.57112213    -0.82500
H3164       H  0.72540261  0.91191984  0.61589523     0.13200
C3165       C  0.75045846  0.92242582  0.68522415     0.02600
N3166       N  0.77437417  0.87322003  0.71787917    -0.81100
H3167       H  0.76671735  0.82988778  0.67194970     0.18100
C3168       C  0.74074028  0.92509418  0.72440408    -0.25900
C3169       C  0.74071578  0.94968097  0.74460609     0.36100
C3170       C  0.74977525  0.97345475  0.72527740    -0.20000
C3171       C  0.76085855  0.97010300  0.68639494    -0.25200
C3172       C  0.76089073  0.94528240  0.66618201     0.27500
H3173       H  0.73288280  0.90779902  0.73971748     0.13200
N3174       N  0.73152290  0.95005316  0.78536815    -0.82500
H3175       H  0.77034084  0.98652680  0.67150924     0.18100
N3176       N  0.77199484  0.94314051  0.62646841    -0.81100
H3177       H  0.71188318  0.94331492  0.78587066     0.33700
H3178       H  0.74319578  0.93673766  0.80209256     0.38200
H3179       H  0.77874642  0.96159981  0.61636298     0.33700
H3180       H  0.78869161  0.93066754  0.62830214     0.30400
H3181       H  0.78133496  0.85431108  0.72594507     0.33700
H3182       H  0.79115795  0.88499170  0.71313147     0.30400
H3183       H  0.69967570  0.85725065  0.57652116     0.38200
H3184       H  0.70908106  0.88804352  0.56367719     0.33700
C3185       C  0.93871025  0.56875513  0.43904961    -0.20000
C3186       C  0.93013957  0.56938379  0.47945149     0.36200
C3187       C  0.91119300  0.58818298  0.49128723    -0.26000
C3188       C  0.90052050  0.60628330  0.46342565     0.02600
C3189       C  0.90914506  0.60581069  0.42302011     0.27400
C3190       C  0.92837583  0.58703967  0.41124646    -0.25100
N3191       N  0.94029239  0.55105966  0.50884484    -0.82500
H3192       H  0.90471253  0.58869269  0.52237373     0.13200
C3193       C  0.88048303  0.62583469  0.47702952     0.02600
N3194       N  0.89806797  0.62414260  0.39416715    -0.81100
H3195       H  0.93494836  0.58623142  0.38022445     0.18100
C3196       C  0.88665490  0.65283183  0.47523981    -0.25900
C3197       C  0.86797061  0.67226183  0.48640605     0.36100
C3198       C  0.84205059  0.66438086  0.49851186    -0.20000
C3199       C  0.83656006  0.63710360  0.50229206    -0.25200
C3200       C  0.85547437  0.61775857  0.49148070     0.27500
H3201       H  0.90620396  0.65874056  0.46486011     0.13200
N3202       N  0.87516798  0.69984926  0.48421037    -0.82500
H3203       H  0.81707994  0.63075722  0.51225277     0.18100
N3204       N  0.84915231  0.58998127  0.49398025    -0.81100
H3205       H  0.89425326  0.70207420  0.47214011     0.33700
H3206       H  0.87604904  0.70699882  0.51365875     0.38200
H3207       H  0.82995230  0.58737551  0.50541975     0.33700
H3208       H  0.84904856  0.58246386  0.46470292     0.30400
H3209       H  0.90662526  0.62118570  0.36584515     0.33700
H3210       H  0.87781546  0.61988566  0.39126496     0.30400
H3211       H  0.96093458  0.55326786  0.51052549     0.38200
H3212       H  0.93624257  0.53175458  0.49922609     0.33700
C3213       C  0.57409296  0.55724669  0.42439387    -0.20000
C3214       C  0.58390754  0.55723464  0.46435343     0.36200
C3215       C  0.60307418  0.57583446  0.47525958    -0.26000
C3216       C  0.61256438  0.59431606  0.44737106     0.02600
C3217       C  0.60372639  0.59372494  0.40719695     0.27400
C3218       C  0.58440156  0.57512473  0.39605891    -0.25100
N3219       N  0.57458297  0.53912835  0.49473615    -0.82500
H3220       H  0.61021348  0.57627509  0.50601883     0.13200
C3221       C  0.63096866  0.61488181  0.46130988     0.02600
N3222       N  0.61428179  0.61208282  0.37815236    -0.81100
H3223       H  0.57682512  0.57496093  0.36554541     0.18100
C3224       C  0.65832997  0.61016448  0.45897076    -0.25900
C3225       C  0.67643867  0.62938887  0.47162738     0.36100
C3226       C  0.66695360  0.65403521  0.48674475    -0.20000
C3227       C  0.63932564  0.65825065  0.49006990    -0.25200
C3228       C  0.62122987  0.63882190  0.47759270     0.27500
H3229       H  0.66567529  0.59152321  0.44687173     0.13200
N3230       N  0.70437976  0.62392528  0.46791967    -0.82500
H3231       H  0.63177957  0.67688367  0.50185650     0.18100
N3232       N  0.59301981  0.64318572  0.48145215    -0.81100
H3233       H  0.70859271  0.61999578  0.43770848     0.33700
H3234       H  0.70877952  0.60681701  0.48465116     0.38200
H3235       H  0.58912587  0.66165308  0.49459924     0.33700
H3236       H  0.58492204  0.64393768  0.45250915     0.30400
H3237       H  0.60589192  0.60877501  0.34984539     0.33700
H3238       H  0.60849476  0.63124027  0.38670963     0.30400
H3239       H  0.56067507  0.52578548  0.48348881     0.38200
H3240       H  0.56484791  0.55035140  0.51676509     0.33700
C3241       C  0.55699092  0.92521869  0.41890354    -0.20000
C3242       C  0.56468965  0.92251301  0.45956603     0.36200
C3243       C  0.58378288  0.90352205  0.47022516    -0.26000
C3244       C  0.59517439  0.88698074  0.44108594     0.02600
C3245       C  0.58697667  0.88897990  0.40061749     0.27400
C3246       C  0.56781949  0.90821065  0.38983308    -0.25100
N3247       N  0.55343058  0.93888443  0.49047471    -0.82500
H3248       H  0.58990599  0.90171415  0.50138273     0.13200
C3249       C  0.61589315  0.86781723  0.45356626     0.02600
N3250       N  0.59831856  0.87166244  0.37079669    -0.81100
H3251       H  0.56167866  0.91034081  0.35874336     0.18100
C3252       C  0.60912260  0.84115847  0.45864419    -0.25900
C3253       C  0.62805937  0.82237208  0.47170251     0.36100
C3254       C  0.65482641  0.83038496  0.47807028    -0.20000
C3255       C  0.66121621  0.85744939  0.47345511    -0.25200
C3256       C  0.64194602  0.87624493  0.46171446     0.27500
H3257       H  0.58880498  0.83510484  0.45296631     0.13200
N3258       N  0.62007886  0.79528047  0.47796303    -0.82500
H3259       H  0.68139614  0.86406859  0.47859518     0.18100
N3260       N  0.64865390  0.90388081  0.45805844    -0.81100
H3261       H  0.60014619  0.79265706  0.46992687     0.33700
H3262       H  0.62124644  0.79145035  0.50883949     0.38200
H3263       H  0.66862120  0.90688396  0.46555062     0.33700
H3264       H  0.64656036  0.90926006  0.42782061     0.30400
H3265       H  0.58996845  0.87558745  0.34256753     0.33700
H3266       H  0.61858009  0.87604561  0.36854486     0.30400
H3267       H  0.53281027  0.93621185  0.49060542     0.38200
H3268       H  0.55732841  0.95876052  0.48360962     0.33700
C3269       C  0.92255908  0.93641430  0.42030619    -0.20000
C3270       C  0.90956530  0.92003218  0.39213042     0.36200
C3271       C  0.89081076  0.90175686  0.40597179    -0.26000
C3272       C  0.88503224  0.89961080  0.44705519     0.02600
C3273       C  0.89751451  0.91638461  0.47491579     0.27400
C3274       C  0.91604420  0.93476939  0.46127654    -0.25100
N3275       N  0.91490503  0.92133500  0.34968726    -0.82500
H3276       H  0.88094298  0.88888305  0.38466549     0.13200
C3277       C  0.86642639  0.87920101  0.46055503     0.02600
N3278       N  0.89200785  0.91474567  0.51713711    -0.81100
H3279       H  0.92610769  0.94730115  0.48284844     0.18100
C3280       C  0.87644102  0.85416765  0.47107246    -0.25900
C3281       C  0.85934087  0.83394356  0.48344820     0.36100
C3282       C  0.83155551  0.83893186  0.48529253    -0.20000
C3283       C  0.82185417  0.86451484  0.47568838    -0.25200
C3284       C  0.83904663  0.88463603  0.46302135     0.27500
H3285       H  0.89766792  0.85026302  0.46931718     0.13200
N3286       N  0.87039168  0.80843854  0.49354120    -0.82500
H3287       H  0.80069670  0.86874553  0.47682515     0.18100
N3288       N  0.82889387  0.91054134  0.45256230    -0.81100
H3289       H  0.88416623  0.81098124  0.51675964     0.33700
H3290       H  0.88062337  0.80119957  0.46841731     0.38200
H3291       H  0.83237423  0.91349816  0.42187350     0.33700
H3292       H  0.80825456  0.91138603  0.45652186     0.30400
H3293       H  0.87163851  0.91806658  0.52146202     0.33700
H3294       H  0.89660363  0.89550584  0.52701444     0.30400
H3295       H  0.92870202  0.93605844  0.34274612     0.38200
H3296       H  0.92345688  0.90319493  0.34123049     0.33700
C3297       C  0.65633351  0.74578477  0.36753262    -0.20000
C3298       C  0.63902213  0.76799814  0.36928359     0.36200
C3299       C  0.61406883  0.76724770  0.34999525    -0.26000
C3300       C  0.60583580  0.74485263  0.32832154     0.02600
C3301       C  0.62385431  0.72327110  0.32443189     0.27400
C3302       C  0.64874217  0.72371592  0.34448960    -0.25100
N3303       N  0.64676855  0.79118989  0.39137593    -0.82500
H3304       H  0.60076444  0.78423661  0.35216702     0.13200
C3305       C  0.57918999  0.74585096  0.30758533     0.02600
N3306       N  0.61695771  0.70092029  0.30015294    -0.81100
H3307       H  0.66175515  0.70647689  0.34305053     0.18100
C3308       C  0.57508737  0.76601405  0.27936464    -0.25900
C3309       C  0.55075961  0.76961115  0.25921582     0.36100
C3310       C  0.52819272  0.75301374  0.26813816    -0.20000
C3311       C  0.53306050  0.73200570  0.29576131    -0.25200
C3312       C  0.55765554  0.72859415  0.31610724     0.27500
H3313       H  0.59145875  0.77910980  0.27201684     0.13200
N3314       N  0.55034263  0.78950170  0.22826664    -0.82500
H3315       H  0.51737725  0.71790305  0.30186456     0.18100
N3316       N  0.55965764  0.70766869  0.34552636    -0.81100
H3317       H  0.56517937  0.78504855  0.20722766     0.33700
H3318       H  0.55489661  0.80781957  0.24125395     0.38200
H3319       H  0.57807339  0.70769536  0.35998217     0.33700
H3320       H  0.54551324  0.71157582  0.36785111     0.30400
H3321       H  0.63148145  0.69882630  0.27783197     0.33700
H3322       H  0.61763224  0.68392641  0.31831396     0.30400
H3323       H  0.66376044  0.79891432  0.37759306     0.38200
H3324       H  0.63206850  0.80594509  0.38925927     0.33700
C3325       C  0.84308687  0.74356541  0.37285816    -0.20000
C3326       C  0.86166034  0.72246470  0.37656169     0.36200
C3327       C  0.88678351  0.72421048  0.35761099    -0.26000
C3328       C  0.89353923  0.74628820  0.33381137     0.02600
C3329       C  0.87403945  0.76640240  0.32750154     0.27400
C3330       C  0.84916559  0.76494865  0.34737660    -0.25100
N3331       N  0.85483758  0.69929249  0.39961026    -0.82500
H3332       H  0.90115660  0.70822513  0.36128767     0.13200
C3333       C  0.92063797  0.74773244  0.31452974     0.02600
N3334       N  0.87979087  0.78856075  0.30161788    -0.81100
H3335       H  0.83492138  0.78110824  0.34431567     0.18100
C3336       C  0.92240682  0.74867940  0.27267157    -0.25900
C3337       C  0.94704090  0.75026679  0.25290423     0.36100
C3338       C  0.97148935  0.75171975  0.27492252    -0.20000
C3339       C  0.96954180  0.75062303  0.31736430    -0.25200
C3340       C  0.94453322  0.74822978  0.33714835     0.27500
H3341       H  0.90435963  0.74774904  0.25486737     0.13200
N3342       N  0.94712336  0.74983983  0.20980767    -0.82500
H3343       H  0.98733063  0.75191125  0.33543670     0.18100
N3344       N  0.94331013  0.74641702  0.38024104    -0.81100
H3345       H  0.93811174  0.73226984  0.20035047     0.33700
H3346       H  0.93560587  0.76584772  0.19944209     0.38200
H3347       H  0.96243923  0.74676305  0.39260028     0.33700
H3348       H  0.93333847  0.76333341  0.39072462     0.30400
H3349       H  0.86341038  0.80145878  0.29986525     0.33700
H3350       H  0.89528446  0.79924311  0.31473047     0.30400
H3351       H  0.83849894  0.69042202  0.38570532     0.38200
H3352       H  0.87033682  0.68532000  0.39870600     0.33700
C3353       C  0.74548466  0.83904345  0.36762405    -0.20000
C3354       C  0.76786746  0.84766748  0.34559445     0.36200
C3355       C  0.76811889  0.87372276  0.32908612    -0.26000
C3356       C  0.74685456  0.89176715  0.33540453     0.02600
C3357       C  0.72449584  0.88283718  0.35756276     0.27400
C3358       C  0.72393380  0.85666060  0.37254232    -0.25100
N3359       N  0.79058400  0.83036739  0.34130540    -0.82500
H3360       H  0.78519850  0.88013097  0.31180027     0.13200
C3361       C  0.74761200  0.91954746  0.31794516     0.02600
N3362       N  0.70280960  0.90071195  0.36640897    -0.81100
H3363       H  0.70710978  0.85040940  0.39061500     0.18100
C3364       C  0.72530556  0.92932003  0.29725465    -0.25900
C3365       C  0.72430278  0.95515167  0.28115456     0.36100
C3366       C  0.74768674  0.97122353  0.28006128    -0.20000
C3367       C  0.76904848  0.96240183  0.30476988    -0.25200
C3368       C  0.76938073  0.93690022  0.32323387     0.27500
H3369       H  0.70787480  0.91694813  0.29420028     0.13200
N3370       N  0.69874164  0.96513713  0.26905548    -0.82500
H3371       H  0.78629909  0.97502192  0.30788963     0.18100
N3372       N  0.79177015  0.92864235  0.34724134    -0.81100
H3373       H  0.69075079  0.95210972  0.24787898     0.33700
H3374       H  0.68618385  0.96487784  0.29413813     0.38200
H3375       H  0.80613403  0.94356263  0.34810759     0.33700
H3376       H  0.78502917  0.92607829  0.37674609     0.30400
H3377       H  0.68790869  0.89105853  0.38271966     0.33700
H3378       H  0.71017894  0.91570031  0.38493676     0.30400
H3379       H  0.79861689  0.82714084  0.36994120     0.38200
H3380       H  0.80540513  0.83963892  0.32434076     0.33700
C3381       C  0.75810555  0.65110579  0.37859803    -0.20000
C3382       C  0.77816718  0.63230609  0.38814753     0.36200
C3383       C  0.77727804  0.60655278  0.37213994    -0.26000
C3384       C  0.75687932  0.59891235  0.34585692     0.02600
C3385       C  0.73727597  0.61800252  0.33485934     0.27400
C3386       C  0.73800955  0.64387119  0.35151042    -0.25100
N3387       N  0.79932674  0.63922755  0.41495715    -0.82500
H3388       H  0.79249248  0.59228216  0.38086127     0.13200
C3389       C  0.75695775  0.57125629  0.32899530     0.02600
N3390       N  0.71658813  0.61097410  0.30710122    -0.81100
H3391       H  0.72225514  0.65800348  0.34470215     0.18100
C3392       C  0.73479106  0.55466270  0.33383587    -0.25900
C3393       C  0.73347040  0.52967875  0.31460844     0.36100
C3394       C  0.75400166  0.52149490  0.28770598    -0.20000
C3395       C  0.77811320  0.53587234  0.29039645    -0.25200
C3396       C  0.77939817  0.56101040  0.30868370     0.27500
H3397       H  0.71815241  0.56134012  0.35202964     0.13200
N3398       N  0.71068260  0.51334149  0.32121312    -0.82500
H3399       H  0.79611548  0.52830797  0.27677892     0.18100
N3400       N  0.80323912  0.57653210  0.30541411    -0.81100
H3401       H  0.69360799  0.52432605  0.31384299     0.33700
H3402       H  0.70976904  0.50885869  0.35190574     0.38200
H3403       H  0.81799794  0.56617911  0.28961486     0.33700
H3404       H  0.79865458  0.59342942  0.28831101     0.30400
H3405       H  0.70372318  0.62709755  0.30225948     0.33700
H3406       H  0.72560195  0.60682167  0.27945679     0.30400
H3407       H  0.79893792  0.62599369  0.43924059     0.38200
H3408       H  0.81739374  0.63651820  0.39982728     0.33700
loop_ 
_geom_bond_atom_site_label_1 
_geom_bond_atom_site_label_2 
_geom_bond_distance 
_geom_bond_site_symmetry_2 
_ccdc_geom_bond_type 
O1           C12   1.303       .  A
O1          Eu37   2.529       .  S
O2           C13   1.306       .  A
O2          Eu36   2.546       .  S
O3           C14   1.288       .  A
O3           Eu9   2.438       .  S
O4           C15   1.288       .  A
O4           Eu9   2.448       .  S
O5           C15   1.291       .  A
O5          Eu39   2.459       .  S
O6           C14   1.284       .  A
O6          Eu38   2.428       .  S
O7           C13   1.287       .  A
O7           Eu9   2.433       .  S
O8           C12   1.287       .  A
O8           Eu9   2.433       .  S
Eu9          O19   2.352       .  S
Eu9          O11   2.339       .  S
Eu9          O10   2.346       .  S
Eu9          O17   2.350       .  S
O10         Eu39   2.347       .  S
O10         Eu36   2.381       .  S
O11         Eu37   2.374       .  S
O11         Eu38   2.348       .  S
C12         C825   1.495       .  S
C13         C586   1.507       .  S
C14         C642   1.480       .  S
C15         C670   1.491       .  S
H16          O17   0.966       .  S
O17         Eu38   2.358       .  S
O17         Eu36   2.375       .  S
H18          O19   0.963       .  S
O19         Eu37   2.371       .  S
O19         Eu39   2.340       .  S
O20          C43   1.305       .  A
O20         Eu36   2.541       .  S
O21          C44   1.306       .  A
O21         Eu37   2.549       .  S
O22          C45   1.290       .  A
O22         Eu38   2.451       .  S
O23          C46   1.284       .  A
O23         Eu39   2.409       .  S
O24          C47   1.285       .  A
O24         Eu39   2.425       .  S
O25          C48   1.289       .  A
O25         Eu38   2.444       .  S
O26          C49   1.289       .  A
O26         Eu40   2.450       .  S
O27          C50   1.287       .  A
O27         Eu40   2.429       .  S
O28          C49   1.291       .  A
O28         Eu38   2.466       .  S
O29          C50   1.286       .  A
O29         Eu39   2.437       .  S
O30          C45   1.301       .  A
O30         Eu36   2.517       .  S
O31          C48   1.302       .  A
O31         Eu37   2.516       .  S
O32          C47   1.307       .  A
O32         Eu37   2.551       .  S
O33          C46   1.306       .  A
O33         Eu36   2.543       .  S
O34          C43   1.285       .  A
O34         Eu40   2.423       .  S
O35          C44   1.287       .  A
O35         Eu40   2.428       .  S
Eu36         O54   2.372       .  S
Eu36         O42   2.387       .  S
Eu37         O41   2.362       .  S
Eu37         O52   2.381       .  S
Eu38         O52   2.353       .  S
Eu38         O42   2.344       .  S
Eu39         O41   2.347       .  S
Eu39         O54   2.356       .  S
Eu40         O41   2.348       .  S
Eu40         O52   2.345       .  S
Eu40         O54   2.353       .  S
Eu40         O42   2.344       .  S
C43         C601   1.497       .  S
C44         C797   1.505       .  S
C45         C517   1.489       .  S
C46         C558   1.511       .  S
C47         C741   1.496       .  S
C48         C769   1.487       .  S
C49         C726   1.493       .  S
C50         C698   1.477       .  S
H51          O52   0.965       .  S
H53          O54   0.967       .  S
N55          H87   1.039       .  S
N55          C59   1.354       .  A
N55        C1764   1.350       .  A
N56          C64   1.347       .  A
N56         C915   1.349   1_545  A
N57          H88   1.039       .  S
N57          C61   1.351       .  A
N57        C1766   1.353       .  A
N58          C66   1.349   1_565  A
N58         C917   1.347       .  A
C59          C67   1.386       .  A
C59          C75   1.412       .  A
C60        N1759   1.350   1_455  A
C60          C76   1.412       .  A
C60          C68   1.389       .  A
C61          C69   1.388       .  A
C61          C78   1.410       .  A
C62        N1761   1.353   1_455  A
C62          C77   1.411       .  A
C62          C70   1.386       .  A
C63         N908   1.348       .  A
C63          C75   1.405       .  A
C63          C71   1.384       .  A
C64          C78   1.408       .  A
C64          C72   1.387       .  A
C65         N910   1.347       .  A
C65          C73   1.387       .  A
C65          C76   1.407       .  A
C66          C74   1.385       .  A
C66          C77   1.406       .  A
C67        C1772   1.369       .  A
C67          H79   1.082       .  S
C68        C1771   1.371   1_455  A
C68          H80   1.082       .  S
C69        C1774   1.370       .  A
C69          H81   1.082       .  S
C70        C1773   1.372   1_455  A
C70          H82   1.082       .  S
C71         C924   1.372       .  A
C71          H83   1.082       .  S
C72         C923   1.370   1_545  A
C72          H84   1.083       .  S
C73         C926   1.373       .  A
C73          H85   1.083       .  S
C74         C925   1.372   1_545  A
C74          H86   1.082       .  S
C75         C713   1.484       .  S
C76         C685   1.473       .  S
C77         C657   1.483       .  S
C78         C629   1.472       .  S
O89         C100   1.306       .  A
O89        Eu977   2.540       .  S
O90         C101   1.303       .  A
O90        Eu124   2.530       .  S
O91         C102   1.287       .  A
O91       Eu1801   2.451       .  S
O92         C103   1.287       .  A
O92         Eu97   2.445       .  S
O93         C103   1.289       .  A
O93        Eu127   2.449   1_554  S
O94         C102   1.286       .  A
O94        Eu126   2.433       .  S
O95         C101   1.285       .  A
O95         Eu97   2.422       .  S
O96         C100   1.288       .  A
O96         Eu97   2.432   1_556  S
Eu97       O1795   2.449       .  S
Eu97        O107   2.356   1_554  S
Eu97         O98   2.341       .  S
Eu97       O1803   2.342   1_554  S
Eu97       O1809   2.348       .  S
O98        Eu127   2.333   1_554  S
O98        Eu124   2.369       .  S
O99        Eu126   2.351   1_556  S
O99       Eu1801   2.340   1_556  S
O99       Eu2681   2.378       .  S
C100        C502   1.509       .  S
C101        C237   1.488       .  S
C102        C293   1.486       .  S
C103        C321   1.483       .  S
H104        O105   0.966       .  S
O105       Eu126   2.360       .  S
O105      Eu1801   2.345       .  S
O105      Eu1828   2.381       .  S
H106        O107   0.967       .  S
O107       Eu127   2.352       .  S
O107       Eu977   2.383       .  S
O108        C131   1.302       .  A
O108       Eu976   2.524       .  S
O109        C132   1.303       .  A
O109       Eu125   2.524   1_545  S
O110        C133   1.287       .  A
O110       Eu126   2.430       .  S
O111        C134   1.283       .  A
O111       Eu127   2.405   1_554  S
O112        C135   1.288       .  A
O112       Eu979   2.437   1_556  S
O113        C136   1.288       .  A
O113       Eu978   2.437       .  S
O114        C137   1.288       .  A
O114      Eu1832   2.451   1_454  S
O115        C138   1.286   1_556  A
O115       Eu128   2.436       .  S
O116        C137   1.287       .  A
O116       Eu978   2.443   1_554  S
O117        C138   1.289       .  A
O117       Eu979   2.446   1_545  S
O118        C133   1.307       .  A
O118      Eu1828   2.545       .  S
O119        C136   1.306   1_565  A
O119      Eu1829   2.548   1_455  S
O120        C135   1.306       .  A
O120       Eu125   2.545       .  S
O121        C134   1.310       .  A
O121       Eu124   2.571       .  S
O122        C131   1.287       .  A
O122       Eu128   2.431   1_554  S
O123        C132   1.286       .  A
O123       Eu128   2.424       .  S
Eu124       O960   2.542       .  S
Eu124      O1822   2.565       .  S
Eu124      O1809   2.380       .  S
Eu124       O994   2.371       .  S
Eu124      O2686   2.383       .  S
Eu125       O941   2.554       .  S
Eu125      O1823   2.535   1_565  S
Eu125       O129   2.378   1_565  S
Eu125      O2655   2.377       .  S
Eu125       O959   2.376       .  S
Eu125      O1844   2.387   1_565  S
Eu126       O965   2.443   1_554  S
Eu126       O968   2.457   1_554  S
Eu126       O992   2.341   1_554  S
Eu126       O982   2.344       .  S
Eu127       O964   2.419       .  S
Eu127       O969   2.445   1_556  S
Eu127       O981   2.342       .  S
Eu127       O994   2.351   1_556  S
Eu128      O1818   2.430       .  S
Eu128       O129   2.347       .  S
Eu128       O142   2.343   1_556  S
Eu128      O1844   2.351       .  S
Eu128      O1834   2.338   1_556  S
O129       Eu979   2.336   1_546  S
O130      Eu2680   2.373       .  S
O130       Eu978   2.337   1_554  S
O130      Eu1832   2.332   1_454  S
C131        C265   1.511       .  S
C132        C461   1.482       .  S
C133        C181   1.498       .  S
C134        C209   1.511       .  S
C135        C405   1.505       .  S
C136        C433   1.508   1_545  S
C137        C390   1.485       .  S
C138        C349   1.485       .  S
H139        O140   0.964       .  S
O140      Eu1829   2.387   1_445  S
O140       Eu978   2.331       .  S
O140      Eu1832   2.356   1_455  S
H141        O142   0.963       .  S
O142       Eu976   2.377       .  S
O142       Eu979   2.352   1_545  S
N143        H175   1.036       .  S
N143        C148   1.352       .  A
N143        C147   1.348       .  A
N144        C151   1.351       .  A
N144        C152   1.353       .  A
N145        H176   1.037       .  S
N145        C150   1.350       .  A
N145        C149   1.352       .  A
N146        C153   1.352       .  A
N146        C154   1.349       .  A
C147        C155   1.387       .  A
C147        C163   1.410       .  A
C148        C164   1.410       .  A
C148        C156   1.386       .  A
C149        C157   1.388       .  A
C149        C166   1.414       .  A
C150        C165   1.411       .  A
C150        C158   1.386       .  A
C151        C163   1.416       .  A
C151        C159   1.388       .  A
C152        C166   1.414       .  A
C152        C160   1.385       .  A
C153        C161   1.384       .  A
C153        C164   1.409       .  A
C154        C162   1.388       .  A
C154        C165   1.411       .  A
C155        C156   1.376       .  A
C155        H167   1.082       .  S
C156        H168   1.083       .  S
C157        C158   1.377       .  A
C157        H169   1.082       .  S
C158        H170   1.082       .  S
C159        C160   1.373       .  A
C159        H171   1.082       .  S
C160        H172   1.082       .  S
C161        C162   1.370       .  A
C161        H173   1.082       .  S
C162        H174   1.082       .  S
C163        C306   1.479       .  S
C164        C334   1.483       .  S
C165        C362   1.478       .  S
C166        C377   1.489       .  S
C177        C250   1.576       .  S
C177        C278   1.599       .  S
C177        C782   1.579       .  S
C177       C2458   1.589       .  S
C178        C838   1.589       .  S
C178       C1046   1.583       .  S
C178       C1074   1.587       .  S
C178       C1662   1.590   1_545  S
C179        C474   1.573       .  S
C179        C489   1.593       .  S
C179        C530   1.582       .  S
C179       C2249   1.594       .  S
C180        C418   1.586       .  S
C180        C446   1.591       .  S
C180        C573   1.589   1_565  S
C180       C1466   1.587       .  S
C181        C182   1.414       .  A
C181       C1038   1.409       .  A
C182        C183   1.421       .  A
C182        N187   1.437       .  S
C183        C184   1.411       .  A
C183        H188   1.083       .  S
C184        C189   1.507       .  S
C184       C1037   1.409       .  A
C185        C186   1.405   1_545  A
C185       C1036   1.407       .  A
C185        N190   1.439   1_545  S
C186       C1033   1.420   1_565  A
C186        H191   1.082       .  S
N187        H207   1.045       .  S
N187        H208   1.046       .  S
C189        C196   1.408       .  A
C189       C1044   1.405       .  A
N190        H205   1.046       .  S
N190        H206   1.045   1_565  S
C192        C193   1.413       .  A
C192       C1041   1.407   1_565  A
C192        H197   1.083       .  S
C193       C1046   1.424   1_565  A
C193        N198   1.432       .  S
C194        C195   1.419       .  A
C194       C1045   1.427       .  A
C194       C1030   1.584       .  S
C195        C196   1.411       .  A
C195        H199   1.077       .  S
C196        N200   1.432       .  S
N198        H201   1.045       .  S
N198        H202   1.045       .  S
N200        H203   1.046       .  S
N200        H204   1.045       .  S
C209        C214   1.413       .  A
C209       C1062   1.414       .  A
C210        C211   1.426       .  A
C210       C1061   1.416   1_565  A
C210        N215   1.436       .  S
C211       C1064   1.415   1_565  A
C211        H216   1.083       .  S
C212        C217   1.517       .  S
C212        C213   1.408       .  A
C212       C1063   1.417       .  A
C213        C214   1.403       .  A
C213        N218   1.432       .  S
C214        H219   1.084       .  S
N215        H235   1.045   1_565  S
N215        H236   1.046       .  S
C217        C224   1.412       .  A
C217       C1072   1.409       .  A
N218        H233   1.044       .  S
N218        H234   1.046       .  S
C220        C221   1.411       .  A
C220       C1069   1.407       .  A
C220        H225   1.084       .  S
C221       C1074   1.426       .  A
C221        N226   1.433       .  S
C222        C223   1.422       .  A
C222       C1073   1.423       .  A
C222       C1030   1.591       .  S
C223        C224   1.418       .  A
C223        H227   1.078       .  S
C224        N228   1.438       .  S
N226        H229   1.046       .  S
N226        H230   1.046       .  S
N228        H231   1.046       .  S
N228        H232   1.046       .  S
C237        C242   1.406       .  A
C237       C1942   1.412       .  A
C238        C239   1.410       .  A
C238       C1941   1.416       .  A
C238        N243   1.438       .  S
C239       C1944   1.402   1_455  A
C239        H244   1.084       .  S
C240        C245   1.499       .  S
C240        C241   1.418       .  A
C240       C1943   1.402       .  A
C241        C242   1.418       .  A
C241        N246   1.437       .  S
C242        H247   1.084       .  S
N243        H263   1.046       .  S
N243        H264   1.046       .  S
C245        C248   1.394       .  A
C245       C1956   1.415       .  A
N246        H261   1.046       .  S
N246        H262   1.046       .  S
C248        C249   1.403       .  A
C248        H253   1.084       .  S
C249        C250   1.433       .  A
C249        N254   1.433       .  S
C250       C1955   1.415       .  A
C251        C252   1.420       .  A
C251       C1954   1.416       .  A
C251        H255   1.079       .  S
C252       C1949   1.415       .  A
C252        N256   1.437       .  S
N254        H257   1.046       .  S
N254        H258   1.045       .  S
N256        H259   1.046       .  S
N256        H260   1.046       .  S
C265        C270   1.416       .  A
C265       C1970   1.417       .  A
C266        C267   1.420       .  A
C266       C1969   1.416       .  A
C266        N271   1.436       .  S
C267       C1972   1.410       .  A
C267        H272   1.083       .  S
C268        C273   1.503       .  S
C268        C269   1.407       .  A
C268       C1971   1.411       .  A
C269        C270   1.404       .  A
C269        N274   1.439       .  S
C270        H275   1.082       .  S
N271        H291   1.045       .  S
N271        H292   1.046       .  S
C273        C280   1.401       .  A
C273       C1980   1.403       .  A
N274        H289   1.046       .  S
N274        H290   1.046       .  S
C276        C277   1.415       .  A
C276       C1977   1.401       .  A
C276        H281   1.084       .  S
C277       C1982   1.443       .  A
C277        N282   1.434       .  S
C278        C279   1.432       .  A
C278       C1981   1.439       .  A
C279        C280   1.406       .  A
C279        H283   1.078       .  S
C280        N284   1.439       .  S
N282        H285   1.045       .  S
N282        H286   1.030       .  S
N284        H287   1.045       .  S
N284        H288   1.046       .  S
C293        C294   1.421       .  A
C293        C298   1.413       .  A
C294        C295   1.393       .  A
C294        N299   1.433       .  S
C295        C296   1.397       .  A
C295        H300   1.084       .  S
C296        C301   1.469       .  S
C296        C297   1.404       .  A
C297        C298   1.404       .  A
C297        N302   1.438       .  S
C298        H303   1.083       .  S
N299        H319   1.045   1_554  S
N299        H320   1.045       .  S
C301        C304   1.399       .  A
C301        C308   1.409       .  A
N302        H317   1.046       .  S
N302        H318   1.046       .  S
C304        C305   1.399       .  A
C304        H309   1.084       .  S
C305        C306   1.408       .  A
C305        N310   1.433       .  S
C306        C307   1.400       .  A
C307        C308   1.403       .  A
C307        H311   1.084       .  S
C308        N312   1.437       .  S
N310        H313   1.045       .  S
N310        H314   1.046   1_554  S
N312        H315   1.046       .  S
N312        H316   1.046       .  S
C321        C322   1.413       .  A
C321        C326   1.407       .  A
C322        C323   1.404       .  A
C322        N327   1.433   1_554  S
C323        C324   1.401       .  A
C323        H328   1.084       .  S
C324        C329   1.475       .  S
C324        C325   1.407       .  A
C325        C326   1.403       .  A
C325        N330   1.438       .  S
C326        H331   1.084       .  S
N327        H347   1.046   1_556  S
N327        H348   1.046       .  S
C329        C332   1.404       .  A
C329        C336   1.407       .  A
N330        H345   1.046       .  S
N330        H346   1.045       .  S
C332        C333   1.409       .  A
C332        H337   1.084       .  S
C333        C334   1.410       .  A
C333        N338   1.437       .  S
C334        C335   1.401       .  A
C335        C336   1.400       .  A
C335        H339   1.084       .  S
C336        N340   1.438   1_554  S
N338        H341   1.046       .  S
N338        H342   1.045       .  S
N340        H343   1.046       .  S
N340        H344   1.045   1_556  S
C349        C350   1.417       .  A
C349        C354   1.409       .  A
C350        C351   1.401       .  A
C350        N355   1.433       .  S
C351        C352   1.399       .  A
C351        H356   1.084       .  S
C352        C357   1.470       .  S
C352        C353   1.403       .  A
C353        C354   1.400       .  A
C353        N358   1.437       .  S
C354        H359   1.083       .  S
N355        H375   1.046       .  S
N355        H376   1.046   1_554  S
C357        C360   1.400       .  A
C357        C364   1.408       .  A
N358        H373   1.045       .  S
N358        H374   1.046       .  S
C360        C361   1.401       .  A
C360        H365   1.084   1_554  S
C361        C362   1.410       .  A
C361        N366   1.438       .  S
C362        C363   1.401       .  A
C363        C364   1.401       .  A
C363        H367   1.084       .  S
C364        N368   1.438       .  S
N366        H369   1.046       .  S
N366        H370   1.046   1_554  S
N368        H371   1.046       .  S
N368        H372   1.045       .  S
C377        C378   1.414       .  A
C377        C382   1.403       .  A
C378        C379   1.398       .  A
C378        N383   1.433       .  S
C379        C380   1.401       .  A
C379        H384   1.084   1_554  S
C380        C385   1.482       .  S
C380        C381   1.410       .  A
C381        C382   1.406       .  A
C381        N386   1.432       .  S
C382        H387   1.084       .  S
N383        H403   1.044       .  S
N383        H404   1.046       .  S
C385        C388   1.400       .  A
C385        C392   1.408       .  A
N386        H401   1.046       .  S
N386        H402   1.045       .  S
C388        C389   1.401       .  A
C388        H393   1.084       .  S
C389        C390   1.416       .  A
C389        N394   1.433       .  S
C390        C391   1.406       .  A
C391        C392   1.404       .  A
C391        H395   1.082   1_554  S
C392        N396   1.432       .  S
N394        H397   1.045       .  S
N394        H398   1.046       .  S
N396        H399   1.046   1_554  S
N396        H400   1.046       .  S
C405        C406   1.419   1_565  A
C405       C1262   1.407       .  A
C406        C407   1.411       .  A
C406        N411   1.439       .  S
C407       C1260   1.403   1_545  A
C407        H412   1.084       .  S
C408        C413   1.503       .  S
C408        C409   1.418       .  A
C408       C1259   1.400       .  A
C409        C410   1.420       .  A
C409        N414   1.437       .  S
C410       C1257   1.405       .  A
C410        H415   1.083       .  S
N411        H431   1.046       .  S
N411        H432   1.046       .  S
C413        C420   1.413       .  A
C413       C1268   1.395       .  A
N414        H429   1.046       .  S
N414        H430   1.046       .  S
C416        C417   1.409       .  A
C416       C1265   1.396       .  A
C416        H421   1.084   1_565  S
C417        C418   1.434       .  A
C417        N422   1.432   1_565  S
C418       C1271   1.416       .  A
C419        C420   1.418       .  A
C419       C1270   1.418       .  A
C419        H423   1.076       .  S
C420        N424   1.438       .  S
N422        H425   1.046       .  S
N422        H426   1.046   1_545  S
N424        H427   1.046       .  S
N424        H428   1.045       .  S
C433        C438   1.408   1_565  A
C433       C1286   1.419       .  A
C434        C435   1.410       .  A
C434       C1285   1.417       .  A
C434        N439   1.439       .  S
C435       C1288   1.402       .  A
C435        H440   1.084       .  S
C436        C441   1.513       .  S
C436        C437   1.421       .  A
C436       C1287   1.401   1_545  A
C437        C438   1.425       .  A
C437        N442   1.437       .  S
C438        H443   1.083       .  S
N439        H459   1.046       .  S
N439        H460   1.046       .  S
C441        C448   1.423       .  A
C441       C1296   1.395   1_545  A
N442        H457   1.046       .  S
N442        H458   1.045       .  S
C444        C445   1.406       .  A
C444       C1293   1.395       .  A
C444        H449   1.084       .  S
C445       C1298   1.435       .  A
C445        N450   1.432       .  S
C446        C447   1.416   1_565  A
C446       C1297   1.439       .  A
C447        C448   1.421       .  A
C447        H451   1.077       .  S
C448        N452   1.438       .  S
N450        H453   1.046       .  S
N450        H454   1.046       .  S
N452        H455   1.046       .  S
N452        H456   1.043       .  S
C461        C462   1.409       .  A
C461       C2170   1.404       .  A
C462        C463   1.404       .  A
C462        N467   1.433       .  S
C463       C2168   1.402       .  A
C463        H468   1.084       .  S
C464        C469   1.497       .  S
C464        C465   1.419       .  A
C464       C2167   1.400   1_655  A
C465        C466   1.416       .  A
C465        N470   1.437       .  S
C466       C2165   1.402       .  A
C466        H471   1.083       .  S
N467        H487   1.046       .  S
N467        H488   1.045       .  S
C469        C472   1.393       .  A
C469       C2180   1.416       .  A
N470        H485   1.046       .  S
N470        H486   1.045       .  S
C472        C473   1.399       .  A
C472        H477   1.084       .  S
C473       C2178   1.432       .  A
C473        N478   1.433       .  S
C474        C475   1.412       .  A
C474       C2177   1.433       .  A
C475        C476   1.417       .  A
C475        H479   1.080       .  S
C476       C2173   1.415       .  A
C476        N480   1.437       .  S
N478        H481   1.046   1_655  S
N478        H482   1.046       .  S
N480        H483   1.045       .  S
N480        H484   1.046       .  S
C489        C490   1.427       .  A
C489       C2198   1.425       .  A
C490        C491   1.419       .  A
C490        N495   1.431       .  S
C491        C492   1.410       .  A
C491        H496   1.082       .  S
C492        C497   1.519       .  S
C492       C2197   1.407       .  A
C493        C494   1.407       .  A
C493       C2196   1.403   1_655  A
C493        N498   1.432       .  S
C494       C2193   1.424       .  A
C494        H499   1.079       .  S
N495        H515   1.045       .  S
N495        H516   1.046       .  S
C497        C504   1.411       .  A
C497       C2204   1.417       .  A
N498        H513   1.045       .  S
N498        H514   1.046       .  S
C500        C501   1.423       .  A
C500       C2201   1.414       .  A
C500        H505   1.083       .  S
C501       C2206   1.417       .  A
C501        N506   1.436       .  S
C502        C503   1.412       .  A
C502       C2205   1.413       .  A
C503        C504   1.407       .  A
C503        H507   1.082       .  S
C504        N508   1.432       .  S
N506        H509   1.046       .  S
N506        H510   1.045   1_455  S
N508        H511   1.046       .  S
N508        H512   1.045       .  S
C517        C518   1.409       .  A
C517        C522   1.404       .  A
C518        C519   1.408       .  A
C518        N523   1.431       .  S
C519        C520   1.404       .  A
C519        H524   1.084       .  S
C520        C525   1.503       .  S
C520        C521   1.418       .  A
C521        C522   1.417       .  A
C521        N526   1.437       .  S
C522        H527   1.084       .  S
N523        H543   1.046       .  S
N523        H544   1.043       .  S
C525        C528   1.395       .  A
C525        C532   1.415       .  A
N526        H541   1.046       .  S
N526        H542   1.046       .  S
C528        C529   1.403       .  A
C528        H533   1.084       .  S
C529        C530   1.435       .  A
C529        N534   1.434       .  S
C530        C531   1.414       .  A
C531        C532   1.420       .  A
C531        H535   1.079       .  S
C532        N536   1.437       .  S
N534        H537   1.046       .  S
N534        H538   1.046       .  S
N536        H539   1.045       .  S
N536        H540   1.046       .  S
C545        C546   1.422       .  A
C545        C550   1.426       .  A
C545       C1883   1.581   1_455  S
C546        C547   1.414       .  A
C546        N551   1.431       .  S
C547        C548   1.407       .  A
C547        H552   1.083       .  S
C548        C553   1.501       .  S
C548        C549   1.404       .  A
C549        C550   1.405       .  A
C549        N554   1.439       .  S
C550        H555   1.078       .  S
N551        H571   1.045       .  S
N551        H572   1.046       .  S
C553        C556   1.412       .  A
C553        C560   1.406       .  A
N554        H569   1.046       .  S
N554        H570   1.046       .  S
C556        C557   1.418       .  A
C556        H561   1.083       .  S
C557        C558   1.414       .  A
C557        N562   1.436       .  S
C558        C559   1.418       .  A
C559        C560   1.404       .  A
C559        H563   1.082       .  S
C560        N564   1.439       .  S
N562        H565   1.046       .  S
N562        H566   1.046       .  S
N564        H567   1.046       .  S
N564        H568   1.046       .  S
C573        C574   1.440       .  A
C573        C578   1.417       .  A
C574        C575   1.407       .  A
C574        N579   1.432       .  S
C575        C576   1.392       .  A
C575        H580   1.084       .  S
C576        C581   1.508       .  S
C576        C577   1.415       .  A
C577        C578   1.424       .  A
C577        N582   1.437       .  S
C578        H583   1.076       .  S
N579        H599   1.046       .  S
N579        H600   1.046       .  S
C581        C584   1.399       .  A
C581        C588   1.420       .  A
N582        H597   1.045       .  S
N582        H598   1.046       .  S
C584        C585   1.409       .  A
C584        H589   1.084       .  S
C585        C586   1.421       .  A
C585        N590   1.439       .  S
C586        C587   1.408       .  A
C587        C588   1.424       .  A
C587        H591   1.083       .  S
C588        N592   1.437       .  S
N590        H593   1.046       .  S
N590        H594   1.046       .  S
N592        H595   1.046       .  S
N592        H596   1.045       .  S
C601        C602   1.419       .  A
C601        C606   1.405       .  A
C602        C603   1.409       .  A
C602        N607   1.439       .  S
C603        C604   1.401       .  A
C603        H608   1.084       .  S
C604        C609   1.504       .  S
C604        C605   1.418       .  A
C605        C606   1.419       .  A
C605        N610   1.437       .  S
C606        H611   1.083       .  S
N607        H627   1.045       .  S
N607        H628   1.046       .  S
C609        C612   1.394       .  A
C609        C616   1.414       .  A
N610        H625   1.046       .  S
N610        H626   1.046       .  S
C612        C613   1.404       .  A
C612        H617   1.084       .  S
C613        C614   1.432       .  A
C613        N618   1.432       .  S
C614        C615   1.417       .  A
C614       C1032   1.582       .  S
C615        C616   1.420       .  A
C615        H619   1.077       .  S
C616        N620   1.437       .  S
N618        H621   1.046       .  S
N618        H622   1.046       .  S
N620        H623   1.046       .  S
N620        H624   1.045       .  S
C629        C630   1.416       .  A
C629        C634   1.399       .  A
C630        C631   1.392       .  A
C630        N635   1.439       .  S
C631        C632   1.398       .  A
C631        H636   1.084       .  S
C632        C637   1.467       .  S
C632        C633   1.410       .  A
C633        C634   1.400       .  A
C633        N638   1.438       .  S
C634        H639   1.084       .  S
N635        H655   1.043       .  S
N635        H656   1.046       .  S
C637        C640   1.397       .  A
C637        C644   1.406       .  A
N638        H653   1.046       .  S
N638        H654   1.046       .  S
C640        C641   1.400       .  A
C640        H645   1.084       .  S
C641        C642   1.419       .  A
C641        N646   1.438       .  S
C642        C643   1.407       .  A
C643        C644   1.397       .  A
C643        H647   1.083       .  S
C644        N648   1.439       .  S
N646        H649   1.046       .  S
N646        H650   1.046       .  S
N648        H651   1.046       .  S
N648        H652   1.046       .  S
C657        C658   1.418       .  A
C657        C662   1.401       .  A
C658        C659   1.402       .  A
C658        N663   1.439       .  S
C659        C660   1.401       .  A
C659        H664   1.084       .  S
C660        C665   1.477       .  S
C660        C661   1.409       .  A
C661        C662   1.404       .  A
C661        N666   1.438       .  S
C662        H667   1.084       .  S
N663        H683   1.043       .  S
N663        H684   1.045       .  S
C665        C668   1.398       .  A
C665        C672   1.407       .  A
N666        H681   1.046       .  S
N666        H682   1.045       .  S
C668        C669   1.404       .  A
C668        H673   1.084       .  S
C669        C670   1.418       .  A
C669        N674   1.433       .  S
C670        C671   1.409       .  A
C671        C672   1.405       .  A
C671        H675   1.083       .  S
C672        N676   1.438       .  S
N674        H677   1.046       .  S
N674        H678   1.046       .  S
N676        H679   1.046       .  S
N676        H680   1.045       .  S
C685        C686   1.413       .  A
C685        C690   1.401       .  A
C686        C687   1.388       .  A
C686        N691   1.433       .  S
C687        C688   1.396       .  A
C687        H692   1.084       .  S
C688        C693   1.462       .  S
C688        C689   1.409       .  A
C689        C690   1.403       .  A
C689        N694   1.438       .  S
C690        H695   1.084       .  S
N691        H711   1.045       .  S
N691        H712   1.045       .  S
C693        C696   1.397       .  A
C693        C700   1.403       .  A
N694        H709   1.046       .  S
N694        H710   1.046       .  S
C696        C697   1.402       .  A
C696        H701   1.084       .  S
C697        C698   1.417       .  A
C697        N702   1.438       .  S
C698        C699   1.407       .  A
C699        C700   1.395       .  A
C699        H703   1.083       .  S
C700        N704   1.438       .  S
N702        H705   1.046       .  S
N702        H706   1.046       .  S
N704        H707   1.045       .  S
N704        H708   1.046       .  S
C713        C714   1.414       .  A
C713        C718   1.406       .  A
C714        C715   1.401       .  A
C714        N719   1.437       .  S
C715        C716   1.402       .  A
C715        H720   1.084       .  S
C716        C721   1.475       .  S
C716        C717   1.409       .  A
C717        C718   1.397       .  A
C717        N722   1.432       .  S
C718        H723   1.084       .  S
N719        H739   1.043       .  S
N719        H740   1.046       .  S
C721        C724   1.399       .  A
C721        C728   1.402       .  A
N722        H737   1.045       .  S
N722        H738   1.045       .  S
C724        C725   1.404       .  A
C724        H729   1.084       .  S
C725        C726   1.416       .  A
C725        N730   1.431       .  S
C726        C727   1.411       .  A
C727        C728   1.403       .  A
C727        H731   1.083       .  S
C728        N732   1.432       .  S
N730        H733   1.045       .  S
N730        H734   1.046       .  S
N732        H735   1.045       .  S
N732        H736   1.046       .  S
C741        C742   1.413       .  A
C741        C746   1.408       .  A
C742        C743   1.412       .  A
C742        N747   1.438       .  S
C743        C744   1.409       .  A
C743        H748   1.084       .  S
C744        C749   1.516       .  S
C744        C745   1.417       .  A
C745        C746   1.420       .  A
C745        N750   1.431       .  S
C746        H751   1.084       .  S
N747        H767   1.046       .  S
N747        H768   1.046       .  S
C749        C752   1.395       .  A
C749        C756   1.412       .  A
N750        H765   1.045       .  S
N750        H766   1.046       .  S
C752        C753   1.407       .  A
C752        H757   1.084       .  S
C753        C754   1.445       .  A
C753        N758   1.433       .  S
C754        C755   1.422       .  A
C754       C1881   1.597   1_455  S
C755        C756   1.422       .  A
C755        H759   1.083       .  S
C756        N760   1.431       .  S
N758        H761   1.046       .  S
N758        H762   1.046       .  S
N760        H763   1.046       .  S
N760        H764   1.045       .  S
C769        C770   1.415       .  A
C769        C774   1.401       .  A
C770        C771   1.412       .  A
C770        N775   1.438       .  S
C771        C772   1.405       .  A
C771        H776   1.084       .  S
C772        C777   1.499       .  S
C772        C773   1.416       .  A
C773        C774   1.412       .  A
C773        N778   1.437       .  S
C774        H779   1.084       .  S
N775        H795   1.046       .  S
N775        H796   1.046       .  S
C777        C780   1.395       .  A
C777        C784   1.414       .  A
N778        H793   1.046       .  S
N778        H794   1.046       .  S
C780        C781   1.401       .  A
C780        H785   1.084       .  S
C781        C782   1.431       .  A
C781        N786   1.433       .  S
C782        C783   1.416       .  A
C783        C784   1.419       .  A
C783        H787   1.079       .  S
C784        N788   1.437       .  S
N786        H789   1.046       .  S
N786        H790   1.046       .  S
N788        H791   1.045       .  S
N788        H792   1.046       .  S
C797        C798   1.415       .  A
C797        C802   1.410       .  A
C798        C799   1.423       .  A
C798        N803   1.436       .  S
C799        C800   1.412       .  A
C799        H804   1.083       .  S
C800        C805   1.509       .  S
C800        C801   1.411       .  A
C801        C802   1.408       .  A
C801        N806   1.438       .  S
C802        H807   1.084       .  S
N803        H823   1.046       .  S
N803        H824   1.046       .  S
C805        C808   1.401       .  A
C805        C812   1.412       .  A
N806        H821   1.044       .  S
N806        H822   1.046       .  S
C808        C809   1.409       .  A
C808        H813   1.084       .  S
C809        C810   1.433       .  A
C809        N814   1.433       .  S
C810        C811   1.418       .  A
C810       C1030   1.586       .  S
C811        C812   1.418       .  A
C811        H815   1.083       .  S
C812        N816   1.436       .  S
N814        H817   1.046       .  S
N814        H818   1.046       .  S
N816        H819   1.046       .  S
N816        H820   1.045       .  S
C825        C826   1.414       .  A
C825        C830   1.405       .  A
C826        C827   1.405       .  A
C826        N831   1.433       .  S
C827        C828   1.404       .  A
C827        H832   1.084       .  S
C828        C833   1.506       .  S
C828        C829   1.418       .  A
C829        C830   1.419       .  A
C829        N834   1.437       .  S
C830        H835   1.083       .  S
N831        H851   1.045       .  S
N831        H852   1.046       .  S
C833        C836   1.407       .  A
C833        C840   1.409       .  A
N834        H849   1.046       .  S
N834        H850   1.046       .  S
C836        C837   1.417       .  A
C836        H841   1.084       .  S
C837        C838   1.424       .  A
C837        N842   1.431       .  S
C838        C839   1.421       .  A
C839        C840   1.410       .  A
C839        H843   1.079       .  S
C840        N844   1.439       .  S
N842        H845   1.046       .  S
N842        H846   1.045       .  S
N844        H847   1.045       .  S
N844        H848   1.046       .  S
O853        C864   1.307       .  A
O853       Eu889   2.549       .  S
O854        C865   1.305       .  A
O854       Eu888   2.538       .  S
O855        C866   1.287       .  A
O855       Eu861   2.433       .  S
O856        C867   1.284       .  A
O856       Eu861   2.429       .  S
O857        C867   1.292       .  A
O857       Eu891   2.472       .  S
O858        C866   1.285       .  A
O858       Eu890   2.436       .  S
O859        C865   1.286       .  A
O859       Eu861   2.427       .  S
O860        C864   1.286       .  A
O860       Eu861   2.426       .  S
Eu861       O871   2.347       .  S
Eu861       O863   2.344       .  S
Eu861       O862   2.350       .  S
Eu861       O869   2.345       .  S
O862       Eu891   2.346       .  S
O862       Eu888   2.386       .  S
O863       Eu889   2.377       .  S
O863       Eu890   2.346       .  S
C864       C1677   1.497       .  S
C865       C1438   1.503       .  S
C866       C1494   1.484       .  S
C867       C1522   1.481       .  S
H868        O869   0.964       .  S
O869       Eu890   2.354       .  S
O869       Eu888   2.381       .  S
H870        O871   0.966       .  S
O871       Eu889   2.376       .  S
O871       Eu891   2.343       .  S
O872        C895   1.305       .  A
O872       Eu888   2.540       .  S
O873        C896   1.307       .  A
O873       Eu889   2.554       .  S
O874        C897   1.287       .  A
O874       Eu890   2.431       .  S
O875        C898   1.288       .  A
O875       Eu891   2.432       .  S
O876        C899   1.286       .  A
O876       Eu891   2.432       .  S
O877        C900   1.288       .  A
O877       Eu890   2.441       .  S
O878        C901   1.287       .  A
O878       Eu892   2.439       .  S
O879        C902   1.287       .  A
O879       Eu892   2.434       .  S
O880        C901   1.288       .  A
O880       Eu890   2.449       .  S
O881        C902   1.285       .  A
O881       Eu891   2.432       .  S
O882        C897   1.305       .  A
O882       Eu888   2.539       .  S
O883        C900   1.304       .  A
O883       Eu889   2.534       .  S
O884        C899   1.307       .  A
O884       Eu889   2.549       .  S
O885        C898   1.309       .  A
O885       Eu888   2.558       .  S
O886        C895   1.289       .  A
O886       Eu892   2.447       .  S
O887        C896   1.289       .  A
O887       Eu892   2.442       .  S
Eu888       O906   2.378       .  S
Eu888       O894   2.383       .  S
Eu889       O893   2.370       .  S
Eu889       O904   2.378       .  S
Eu890       O904   2.349       .  S
Eu890       O894   2.349       .  S
Eu891       O893   2.352       .  S
Eu891       O906   2.362       .  S
Eu892       O893   2.346       .  S
Eu892       O904   2.352       .  S
Eu892       O906   2.354       .  S
Eu892       O894   2.344       .  S
C895       C1453   1.501       .  S
C896       C1649   1.506       .  S
C897       C1369   1.495       .  S
C898       C1410   1.523       .  S
C899       C1593   1.496       .  S
C900       C1621   1.495       .  S
C901       C1578   1.487       .  S
C902       C1550   1.481       .  S
H903        O904   0.963       .  S
H905        O906   0.968       .  S
N907        H939   1.038       .  S
N907       C2616   1.353       .  A
N907        C911   1.354       .  A
N908        C916   1.346       .  A
N909        H940   1.040       .  S
N909       C2618   1.352       .  A
N909        C913   1.350       .  A
N910        C918   1.349       .  A
C911        C919   1.388       .  A
C911        C927   1.416       .  A
C912       N2611   1.351   1_455  A
C912        C928   1.410       .  A
C912        C920   1.387       .  A
C913        C921   1.388       .  A
C913        C930   1.410       .  A
C914       N2613   1.352       .  A
C914        C929   1.413       .  A
C914        C922   1.388       .  A
C915        C927   1.407       .  A
C915        C923   1.386       .  A
C916        C930   1.406       .  A
C916        C924   1.387       .  A
C917        C925   1.387       .  A
C917        C928   1.407       .  A
C918        C926   1.386       .  A
C918        C929   1.409       .  A
C919       C2624   1.372       .  A
C919        H931   1.082       .  S
C920       C2623   1.372   1_455  A
C920        H932   1.082       .  S
C921       C2626   1.371       .  A
C921        H933   1.082       .  S
C922       C2625   1.374   1_455  A
C922        H934   1.082       .  S
C923        H935   1.083       .  S
C924        H936   1.082       .  S
C925        H937   1.083       .  S
C926        H938   1.082       .  S
C927       C1565   1.482       .  S
C928       C1537   1.475       .  S
C929       C1509   1.483       .  S
C930       C1481   1.472       .  S
O941        C952   1.308       .  A
O942        C953   1.302       .  A
O942       Eu976   2.522   1_565  S
O943        C954   1.284       .  A
O943      Eu2653   2.432       .  S
O944        C955   1.286       .  A
O944       Eu949   2.433       .  S
O945        C955   1.288       .  A
O945       Eu979   2.441       .  S
O946        C954   1.284   1_556  A
O946       Eu978   2.418   1_565  S
O947        C953   1.285       .  A
O947       Eu949   2.425       .  S
O948        C952   1.285       .  A
O948       Eu949   2.416   1_556  S
Eu949      O2647   2.445       .  S
Eu949       O959   2.355   1_554  S
Eu949      O2655   2.344   1_554  S
Eu949       O950   2.340       .  S
Eu949      O2661   2.341       .  S
O950       Eu979   2.342       .  S
O950       Eu976   2.371   1_565  S
O951      Eu2653   2.350   1_556  S
O951      Eu1829   2.373   1_455  S
O951       Eu978   2.341   1_565  S
C952       C1354   1.518       .  S
C953       C1089   1.481       .  S
C954       C1145   1.474       .  S
C955       C1173   1.469       .  S
H956        O957   0.966       .  S
O957      Eu2653   2.342       .  S
O957       Eu978   2.356   1_564  S
O957      Eu2680   2.380   1_565  S
H958        O959   0.967       .  S
O959       Eu979   2.348   1_556  S
O960        C983   1.306       .  A
O961        C984   1.303       .  A
O961       Eu977   2.527       .  S
O962        C985   1.282       .  A
O962       Eu978   2.399   1_554  S
O963        C986   1.284       .  A
O963       Eu979   2.411   1_545  S
O964        C987   1.285       .  A
O965        C988   1.289       .  A
O966        C989   1.284       .  A
O966      Eu2684   2.423   1_455  S
O967        C990   1.285   1_556  A
O967       Eu980   2.429       .  S
O968        C989   1.289       .  A
O969        C990   1.288       .  A
O970        C985   1.311       .  A
O970      Eu2680   2.574       .  S
O971        C988   1.304       .  A
O971      Eu2681   2.532       .  S
O972        C987   1.305       .  A
O972       Eu977   2.539       .  S
O973        C986   1.309       .  A
O973       Eu976   2.564       .  S
O974        C983   1.285       .  A
O974       Eu980   2.416   1_554  S
O975        C984   1.286       .  A
O975       Eu980   2.425       .  S
Eu976      O2674   2.564       .  S
Eu976      O2661   2.373   1_545  S
Eu976      O1834   2.374       .  S
Eu977      O2675   2.528       .  S
Eu977      O1803   2.373       .  S
Eu977       O981   2.374       .  S
Eu977      O2696   2.388       .  S
Eu980      O2670   2.450       .  S
Eu980       O981   2.349       .  S
Eu980      O2696   2.343       .  S
Eu980       O994   2.350   1_556  S
Eu980      O2686   2.339   1_556  S
O982      Eu1828   2.382       .  S
O982      Eu2684   2.340   1_454  S
C983       C1117   1.511       .  S
C984       C1313   1.485       .  S
C985       C1033   1.519       .  S
C986       C1061   1.516       .  S
C987       C1257   1.496       .  S
C988       C1285   1.497       .  S
C989       C1242   1.484       .  S
C990       C1201   1.481       .  S
H991        O992   0.966       .  S
O992      Eu2681   2.384       .  S
O992      Eu2684   2.353   1_455  S
H993        O994   0.964       .  S
N995       H1027   1.038       .  S
N995       C1000   1.347       .  A
N995        C999   1.347       .  A
N996       C1003   1.344       .  A
N996       C1004   1.348       .  A
N997       H1028   1.040       .  S
N997       C1002   1.347       .  A
N997       C1001   1.350       .  A
N998       C1005   1.350       .  A
N998       C1006   1.346       .  A
C999       C1007   1.388       .  A
C999       C1015   1.407       .  A
C1000      C1016   1.404       .  A
C1000      C1008   1.386       .  A
C1001      C1009   1.385       .  A
C1001      C1018   1.407       .  A
C1002      C1017   1.407       .  A
C1002      C1010   1.387       .  A
C1003      C1015   1.407       .  A
C1003      C1011   1.389       .  A
C1004      C1018   1.401       .  A
C1004      C1012   1.384       .  A
C1005      C1013   1.384       .  A
C1005      C1016   1.405       .  A
C1006      C1014   1.388       .  A
C1006      C1017   1.408       .  A
C1007      C1008   1.377       .  A
C1007      H1019   1.082       .  S
C1008      H1020   1.082       .  S
C1009      C1010   1.378       .  A
C1009      H1021   1.082       .  S
C1010      H1022   1.082       .  S
C1011      C1012   1.370       .  A
C1011      H1023   1.082       .  S
C1012      H1024   1.082       .  S
C1013      C1014   1.373       .  A
C1013      H1025   1.082       .  S
C1014      H1026   1.082       .  S
C1015      C1158   1.466       .  S
C1016      C1186   1.474       .  S
C1017      C1214   1.468       .  S
C1018      C1229   1.476       .  S
C1029      C1102   1.571       .  S
C1029      C1130   1.589       .  S
C1029      C3310   1.589       .  S
C1029      C1634   1.581       .  S
C1030      C1690   1.593       .  S
C1031      C1326   1.577       .  S
C1031      C1341   1.588       .  S
C1031      C1382   1.577       .  S
C1031      C3101   1.586       .  S
C1032      C1270   1.583       .  S
C1032      C1298   1.583       .  S
C1032      C1425   1.584       .  S
C1033      C1034   1.414       .  A
C1034      C1035   1.425       .  A
C1034      N1039   1.435       .  S
C1035      C1036   1.415       .  A
C1035      H1040   1.083       .  S
C1036      C1041   1.511       .  S
C1037      C1038   1.407       .  A
C1037      N1042   1.432       .  S
C1038      H1043   1.084       .  S
N1039      H1059   1.045       .  S
N1039      H1060   1.046       .  S
C1041      C1048   1.410       .  A
N1042      H1057   1.046       .  S
N1042      H1058   1.046       .  S
C1044      C1045   1.417       .  A
C1044      H1049   1.084       .  S
C1045      N1050   1.432       .  S
C1046      C1047   1.420       .  A
C1047      C1048   1.415       .  A
C1047      H1051   1.077       .  S
C1048      N1052   1.438       .  S
N1050      H1053   1.045       .  S
N1050      H1054   1.045       .  S
N1052      H1055   1.045       .  S
N1052      H1056   1.046       .  S
C1061      C1066   1.416       .  A
C1062      C1063   1.427       .  A
C1062      N1067   1.436       .  S
C1063      H1068   1.083       .  S
C1064      C1069   1.511       .  S
C1064      C1065   1.408       .  A
C1065      C1066   1.404       .  A
C1065      N1070   1.439       .  S
C1066      H1071   1.083       .  S
N1067      H1087   1.045       .  S
N1067      H1088   1.045       .  S
C1069      C1076   1.410   1_545  A
N1070      H1085   1.045       .  S
N1070      H1086   1.046   1_545  S
C1072      C1073   1.410       .  A
C1072      H1077   1.083       .  S
C1073      N1078   1.433       .  S
C1074      C1075   1.420   1_545  A
C1075      C1076   1.415       .  A
C1075      H1079   1.078       .  S
C1076      N1080   1.437       .  S
N1078      H1081   1.045       .  S
N1078      H1082   1.046       .  S
N1080      H1083   1.046       .  S
N1080      H1084   1.046       .  S
C1089      C2794   1.409       .  A
C1089      C1094   1.406       .  A
C1090      C2793   1.412       .  A
C1090      C1091   1.409       .  A
C1090      N1095   1.433       .  S
C1091      C2796   1.405   1_455  A
C1091      H1096   1.084       .  S
C1092      C1097   1.492       .  S
C1092      C2795   1.403       .  A
C1092      C1093   1.413       .  A
C1093      C1094   1.414       .  A
C1093      N1098   1.437       .  S
C1094      H1099   1.084       .  S
N1095      H1115   1.045       .  S
N1095      H1116   1.046       .  S
C1097      C1100   1.391       .  A
C1097      C2808   1.413       .  A
N1098      H1113   1.046       .  S
N1098      H1114   1.046       .  S
C1100      C1101   1.400       .  A
C1100      H1105   1.084       .  S
C1101      C1102   1.433       .  A
C1101      N1106   1.433       .  S
C1102      C2807   1.415       .  A
C1103      C2806   1.414       .  A
C1103      C1104   1.422       .  A
C1103      H1107   1.078       .  S
C1104      C2801   1.416       .  A
C1104      N1108   1.437       .  S
N1106      H1109   1.046       .  S
N1106      H1110   1.045       .  S
N1108      H1111   1.045       .  S
N1108      H1112   1.046       .  S
C1117      C2822   1.415       .  A
C1117      C1122   1.417       .  A
C1118      C2821   1.418       .  A
C1118      C1119   1.423       .  A
C1118      N1123   1.437       .  S
C1119      C2824   1.412       .  A
C1119      H1124   1.083       .  S
C1120      C1125   1.501       .  S
C1120      C2823   1.412       .  A
C1120      C1121   1.404       .  A
C1121      C1122   1.404       .  A
C1121      N1126   1.439       .  S
C1122      H1127   1.081       .  S
N1123      H1143   1.046       .  S
N1123      H1144   1.046       .  S
C1125      C2832   1.407       .  A
C1125      C1132   1.400       .  A
N1126      H1141   1.046       .  S
N1126      H1142   1.046       .  S
C1128      C2829   1.406       .  A
C1128      C1129   1.419       .  A
C1128      H1133   1.084       .  S
C1129      C2834   1.439       .  A
C1129      N1134   1.434       .  S
C1130      C2833   1.425       .  A
C1130      C1131   1.430       .  A
C1131      C1132   1.404       .  A
C1131      H1135   1.078       .  S
C1132      N1136   1.439       .  S
N1134      H1137   1.045       .  S
N1134      H1138   1.033       .  S
N1136      H1139   1.045       .  S
N1136      H1140   1.046       .  S
C1145      C1146   1.418       .  A
C1145      C1150   1.409       .  A
C1146      C1147   1.392       .  A
C1146      N1151   1.434   1_554  S
C1147      C1148   1.399       .  A
C1147      H1152   1.084       .  S
C1148      C1153   1.461       .  S
C1148      C1149   1.402       .  A
C1149      C1150   1.395       .  A
C1149      N1154   1.438       .  S
C1150      H1155   1.083       .  S
N1151      H1171   1.046       .  S
N1151      H1172   1.044   1_556  S
C1153      C1156   1.399       .  A
C1153      C1160   1.408       .  A
N1154      H1169   1.045       .  S
N1154      H1170   1.045       .  S
C1156      C1157   1.392       .  A
C1156      H1161   1.084       .  S
C1157      C1158   1.404       .  A
C1157      N1162   1.433       .  S
C1158      C1159   1.400       .  A
C1159      C1160   1.398       .  A
C1159      H1163   1.084       .  S
C1160      N1164   1.438       .  S
N1162      H1165   1.045       .  S
N1162      H1166   1.046   1_554  S
N1164      H1167   1.046       .  S
N1164      H1168   1.045       .  S
C1173      C1174   1.410       .  A
C1173      C1178   1.404       .  A
C1174      C1175   1.400       .  A
C1174      N1179   1.433   1_554  S
C1175      C1176   1.401       .  A
C1175      H1180   1.084       .  S
C1176      C1181   1.470       .  S
C1176      C1177   1.408       .  A
C1177      C1178   1.400       .  A
C1177      N1182   1.438       .  S
C1178      H1183   1.084       .  S
N1179      H1199   1.046       .  S
N1179      H1200   1.046       .  S
C1181      C1184   1.403       .  A
C1181      C1188   1.408       .  A
N1182      H1197   1.046       .  S
N1182      H1198   1.045       .  S
C1184      C1185   1.404       .  A
C1184      H1189   1.084       .  S
C1185      C1186   1.406       .  A
C1185      N1190   1.437       .  S
C1186      C1187   1.401       .  A
C1187      C1188   1.399       .  A
C1187      H1191   1.084       .  S
C1188      N1192   1.438   1_554  S
N1190      H1193   1.046       .  S
N1190      H1194   1.045       .  S
N1192      H1195   1.046       .  S
N1192      H1196   1.046       .  S
C1201      C1202   1.418       .  A
C1201      C1206   1.408       .  A
C1202      C1203   1.397       .  A
C1202      N1207   1.433       .  S
C1203      C1204   1.396       .  A
C1203      H1208   1.084       .  S
C1204      C1209   1.462       .  S
C1204      C1205   1.400       .  A
C1205      C1206   1.397       .  A
C1205      N1210   1.432       .  S
C1206      H1211   1.083       .  S
N1207      H1227   1.045       .  S
N1207      H1228   1.046   1_554  S
C1209      C1212   1.397       .  A
C1209      C1216   1.408       .  A
N1210      H1225   1.045   1_554  S
N1210      H1226   1.043       .  S
C1212      C1213   1.396       .  A
C1212      H1217   1.084   1_554  S
C1213      C1214   1.408       .  A
C1213      N1218   1.438   1_554  S
C1214      C1215   1.400       .  A
C1215      C1216   1.401       .  A
C1215      H1219   1.084       .  S
C1216      N1220   1.437       .  S
N1218      H1221   1.046       .  S
N1218      H1222   1.045       .  S
N1220      H1223   1.046       .  S
N1220      H1224   1.046       .  S
C1229      C1230   1.410   1_554  A
C1229      C1234   1.399       .  A
C1230      C1231   1.396       .  A
C1230      N1235   1.432       .  S
C1231      C1232   1.403   1_556  A
C1231      H1236   1.084       .  S
C1232      C1237   1.476       .  S
C1232      C1233   1.410       .  A
C1233      C1234   1.400       .  A
C1233      N1238   1.432       .  S
C1234      H1239   1.084       .  S
N1235      H1255   1.045       .  S
N1235      H1256   1.045       .  S
C1237      C1240   1.401   1_554  A
C1237      C1244   1.406       .  A
N1238      H1253   1.045       .  S
N1238      H1254   1.046       .  S
C1240      C1241   1.398       .  A
C1240      H1245   1.084       .  S
C1241      C1242   1.413       .  A
C1241      N1246   1.432       .  S
C1242      C1243   1.410   1_556  A
C1243      C1244   1.400       .  A
C1243      H1247   1.084       .  S
C1244      N1248   1.433       .  S
N1246      H1249   1.046       .  S
N1246      H1250   1.046   1_556  S
N1248      H1251   1.046   1_554  S
N1248      H1252   1.046       .  S
C1257      C1258   1.419       .  A
C1258      C1259   1.408       .  A
C1258      N1263   1.439       .  S
C1259      H1264   1.084       .  S
C1260      C1265   1.513       .  S
C1260      C1261   1.420       .  A
C1261      C1262   1.423       .  A
C1261      N1266   1.437       .  S
C1262      H1267   1.083       .  S
N1263      H1283   1.046       .  S
N1263      H1284   1.046       .  S
C1265      C1272   1.417       .  A
N1266      H1281   1.046       .  S
N1266      H1282   1.045       .  S
C1268      C1269   1.407       .  A
C1268      H1273   1.084       .  S
C1269      C1270   1.432       .  A
C1269      N1274   1.432       .  S
C1271      C1272   1.423       .  A
C1271      H1275   1.077       .  S
C1272      N1276   1.437       .  S
N1274      H1277   1.046       .  S
N1274      H1278   1.046       .  S
N1276      H1279   1.045       .  S
N1276      H1280   1.046       .  S
C1285      C1290   1.406       .  A
C1286      C1287   1.411       .  A
C1286      N1291   1.439       .  S
C1287      H1292   1.084       .  S
C1288      C1293   1.503       .  S
C1288      C1289   1.416       .  A
C1289      C1290   1.419       .  A
C1289      N1294   1.437       .  S
C1290      H1295   1.083       .  S
N1291      H1311   1.046       .  S
N1291      H1312   1.045       .  S
C1293      C1300   1.419       .  A
N1294      H1309   1.046       .  S
N1294      H1310   1.046       .  S
C1296      C1297   1.409       .  A
C1296      H1301   1.084       .  S
C1297      N1302   1.432       .  S
C1298      C1299   1.416       .  A
C1299      C1300   1.415       .  A
C1299      H1303   1.077       .  S
C1300      N1304   1.439       .  S
N1302      H1305   1.046       .  S
N1302      H1306   1.046       .  S
N1304      H1307   1.045       .  S
N1304      H1308   1.043       .  S
C1313      C1314   1.411       .  A
C1313      C3022   1.404       .  A
C1314      C1315   1.404       .  A
C1314      N1319   1.433       .  S
C1315      C3020   1.402       .  A
C1315      H1320   1.084       .  S
C1316      C1321   1.507       .  S
C1316      C3019   1.404   1_655  A
C1316      C1317   1.420       .  A
C1317      C1318   1.419       .  A
C1317      N1322   1.437       .  S
C1318      C3017   1.404       .  A
C1318      H1323   1.083       .  S
N1319      H1339   1.046       .  S
N1319      H1340   1.045       .  S
C1321      C1324   1.396       .  A
C1321      C3032   1.417       .  A
N1322      H1337   1.046       .  S
N1322      H1338   1.046       .  S
C1324      C1325   1.404       .  A
C1324      H1329   1.084       .  S
C1325      C3030   1.432       .  A
C1325      N1330   1.433       .  S
C1326      C3029   1.433       .  A
C1326      C1327   1.414       .  A
C1327      C1328   1.420       .  A
C1327      H1331   1.080       .  S
C1328      C3025   1.416       .  A
C1328      N1332   1.437       .  S
N1330      H1333   1.045   1_655  S
N1330      H1334   1.046       .  S
N1332      H1335   1.045       .  S
N1332      H1336   1.046       .  S
C1341      C1342   1.427       .  A
C1341      C3050   1.425       .  A
C1342      C1343   1.420       .  A
C1342      N1347   1.432       .  S
C1343      C1344   1.408       .  A
C1343      H1348   1.083       .  S
C1344      C1349   1.506       .  S
C1344      C3049   1.400       .  A
C1345      C3048   1.397   1_655  A
C1345      C1346   1.403       .  A
C1345      N1350   1.433       .  S
C1346      C3045   1.428       .  A
C1346      H1351   1.078       .  S
N1347      H1367   1.045       .  S
N1347      H1368   1.046       .  S
C1349      C3056   1.413       .  A
C1349      C1356   1.405       .  A
N1350      H1365   1.046       .  S
N1350      H1366   1.046       .  S
C1352      C3053   1.410       .  A
C1352      C1353   1.422       .  A
C1352      H1357   1.083       .  S
C1353      C3058   1.416   1_455  A
C1353      N1358   1.436       .  S
C1354      C3057   1.417       .  A
C1354      C1355   1.420       .  A
C1355      C1356   1.407       .  A
C1355      H1359   1.082       .  S
C1356      N1360   1.439       .  S
N1358      H1361   1.046       .  S
N1358      H1362   1.045       .  S
N1360      H1363   1.046       .  S
N1360      H1364   1.046       .  S
C1369      C1370   1.414       .  A
C1369      C1374   1.406       .  A
C1370      C1371   1.405       .  A
C1370      N1375   1.433       .  S
C1371      C1372   1.402       .  A
C1371      H1376   1.084       .  S
C1372      C1377   1.505       .  S
C1372      C1373   1.420       .  A
C1373      C1374   1.420       .  A
C1373      N1378   1.437       .  S
C1374      H1379   1.083       .  S
N1375      H1395   1.046       .  S
N1375      H1396   1.046       .  S
C1377      C1380   1.397       .  A
C1377      C1384   1.417       .  A
N1378      H1393   1.046       .  S
N1378      H1394   1.046       .  S
C1380      C1381   1.404       .  A
C1380      H1385   1.084       .  S
C1381      C1382   1.431       .  A
C1381      N1386   1.433       .  S
C1382      C1383   1.414       .  A
C1383      C1384   1.418       .  A
C1383      H1387   1.079       .  S
C1384      N1388   1.437       .  S
N1386      H1389   1.046       .  S
N1386      H1390   1.046       .  S
N1388      H1391   1.046       .  S
N1388      H1392   1.046       .  S
C1397      C1398   1.425       .  A
C1397      C1402   1.428       .  A
C1397      C2735   1.592   1_455  S
C1398      C1399   1.421       .  A
C1398      N1403   1.431       .  S
C1399      C1400   1.410       .  A
C1399      H1404   1.083       .  S
C1400      C1405   1.515       .  S
C1400      C1401   1.406       .  A
C1401      C1402   1.411       .  A
C1401      N1406   1.439       .  S
C1402      H1407   1.077       .  S
N1403      H1423   1.046       .  S
N1403      H1424   1.046       .  S
C1405      C1408   1.414       .  A
C1405      C1412   1.408       .  A
N1406      H1421   1.045       .  S
N1406      H1422   1.046       .  S
C1408      C1409   1.425       .  A
C1408      H1413   1.083       .  S
C1409      C1410   1.418       .  A
C1409      N1414   1.436       .  S
C1410      C1411   1.419       .  A
C1411      C1412   1.410       .  A
C1411      H1415   1.082       .  S
C1412      N1416   1.439       .  S
N1414      H1417   1.046       .  S
N1414      H1418   1.046       .  S
N1416      H1419   1.046       .  S
N1416      H1420   1.046       .  S
C1425      C1426   1.435       .  A
C1425      C1430   1.417       .  A
C1426      C1427   1.408       .  A
C1426      N1431   1.432       .  S
C1427      C1428   1.395       .  A
C1427      H1432   1.084       .  S
C1428      C1433   1.503       .  S
C1428      C1429   1.411       .  A
C1429      C1430   1.418       .  A
C1429      N1434   1.437       .  S
C1430      H1435   1.075       .  S
N1431      H1451   1.046       .  S
N1431      H1452   1.046       .  S
C1433      C1436   1.399       .  A
C1433      C1440   1.417       .  A
N1434      H1449   1.045       .  S
N1434      H1450   1.046       .  S
C1436      C1437   1.408       .  A
C1436      H1441   1.084       .  S
C1437      C1438   1.422       .  A
C1437      N1442   1.439       .  S
C1438      C1439   1.407       .  A
C1439      C1440   1.420       .  A
C1439      H1443   1.083       .  S
C1440      N1444   1.437       .  S
N1442      H1445   1.046       .  S
N1442      H1446   1.046       .  S
N1444      H1447   1.046       .  S
N1444      H1448   1.046       .  S
C1453      C1454   1.416       .  A
C1453      C1458   1.408       .  A
C1454      C1455   1.414       .  A
C1454      N1459   1.438       .  S
C1455      C1456   1.403       .  A
C1455      H1460   1.084       .  S
C1456      C1461   1.508       .  S
C1456      C1457   1.417       .  A
C1457      C1458   1.422       .  A
C1457      N1462   1.437       .  S
C1458      H1463   1.083       .  S
N1459      H1479   1.046       .  S
N1459      H1480   1.045       .  S
C1461      C1464   1.395       .  A
C1461      C1468   1.414       .  A
N1462      H1477   1.046       .  S
N1462      H1478   1.046       .  S
C1464      C1465   1.408       .  A
C1464      H1469   1.084       .  S
C1465      C1466   1.434       .  A
C1465      N1470   1.432       .  S
C1466      C1467   1.418       .  A
C1467      C1468   1.424       .  A
C1467      H1471   1.077       .  S
C1468      N1472   1.437       .  S
N1470      H1473   1.046       .  S
N1470      H1474   1.046       .  S
N1472      H1475   1.045       .  S
N1472      H1476   1.046       .  S
C1481      C1482   1.412       .  A
C1481      C1486   1.397       .  A
C1482      C1483   1.393       .  A
C1482      N1487   1.433       .  S
C1483      C1484   1.401       .  A
C1483      H1488   1.084       .  S
C1484      C1489   1.470       .  S
C1484      C1485   1.412       .  A
C1485      C1486   1.399       .  A
C1485      N1490   1.438       .  S
C1486      H1491   1.084       .  S
N1487      H1507   1.045       .  S
N1487      H1508   1.045       .  S
C1489      C1492   1.399       .  A
C1489      C1496   1.405       .  A
N1490      H1505   1.045       .  S
N1490      H1506   1.046       .  S
C1492      C1493   1.401       .  A
C1492      H1497   1.084       .  S
C1493      C1494   1.418       .  A
C1493      N1498   1.438       .  S
C1494      C1495   1.408       .  A
C1495      C1496   1.398       .  A
C1495      H1499   1.083       .  S
C1496      N1500   1.439       .  S
N1498      H1501   1.046       .  S
N1498      H1502   1.046       .  S
N1500      H1503   1.046       .  S
N1500      H1504   1.046       .  S
C1509      C1510   1.418       .  A
C1509      C1514   1.402       .  A
C1510      C1511   1.399       .  A
C1510      N1515   1.439       .  S
C1511      C1512   1.399       .  A
C1511      H1516   1.084       .  S
C1512      C1517   1.474       .  S
C1512      C1513   1.409       .  A
C1513      C1514   1.405       .  A
C1513      N1518   1.438       .  S
C1514      H1519   1.084       .  S
N1515      H1535   1.043       .  S
N1515      H1536   1.045       .  S
C1517      C1520   1.397       .  A
C1517      C1524   1.409       .  A
N1518      H1533   1.046       .  S
N1518      H1534   1.046       .  S
C1520      C1521   1.400       .  A
C1520      H1525   1.084       .  S
C1521      C1522   1.416       .  A
C1521      N1526   1.433       .  S
C1522      C1523   1.404       .  A
C1523      C1524   1.406       .  A
C1523      H1527   1.084       .  S
C1524      N1528   1.438       .  S
N1526      H1529   1.045       .  S
N1526      H1530   1.046       .  S
N1528      H1531   1.045       .  S
N1528      H1532   1.045       .  S
C1537      C1538   1.412       .  A
C1537      C1542   1.401       .  A
C1538      C1539   1.389       .  A
C1538      N1543   1.433       .  S
C1539      C1540   1.398       .  A
C1539      H1544   1.084       .  S
C1540      C1545   1.466       .  S
C1540      C1541   1.410       .  A
C1541      C1542   1.404       .  A
C1541      N1546   1.438       .  S
C1542      H1547   1.084       .  S
N1543      H1563   1.045       .  S
N1543      H1564   1.044       .  S
C1545      C1548   1.397       .  A
C1545      C1552   1.405       .  A
N1546      H1561   1.046       .  S
N1546      H1562   1.046       .  S
C1548      C1549   1.398       .  A
C1548      H1553   1.084       .  S
C1549      C1550   1.417       .  A
C1549      N1554   1.433       .  S
C1550      C1551   1.408       .  A
C1551      C1552   1.398       .  A
C1551      H1555   1.083       .  S
C1552      N1556   1.438       .  S
N1554      H1557   1.046       .  S
N1554      H1558   1.045       .  S
N1556      H1559   1.046       .  S
N1556      H1560   1.046       .  S
C1565      C1566   1.413       .  A
C1565      C1570   1.403       .  A
C1566      C1567   1.400       .  A
C1566      N1571   1.438       .  S
C1567      C1568   1.405       .  A
C1567      H1572   1.084       .  S
C1568      C1573   1.475       .  S
C1568      C1569   1.410       .  A
C1569      C1570   1.394       .  A
C1569      N1574   1.433       .  S
C1570      H1575   1.084       .  S
N1571      H1591   1.044       .  S
N1571      H1592   1.046       .  S
C1573      C1576   1.399       .  A
C1573      C1580   1.407       .  A
N1574      H1589   1.043       .  S
N1574      H1590   1.045       .  S
C1576      C1577   1.398       .  A
C1576      H1581   1.084       .  S
C1577      C1578   1.415       .  A
C1577      N1582   1.433       .  S
C1578      C1579   1.410       .  A
C1579      C1580   1.404       .  A
C1579      H1583   1.083       .  S
C1580      N1584   1.438       .  S
N1582      H1585   1.046       .  S
N1582      H1586   1.046       .  S
N1584      H1587   1.045       .  S
N1584      H1588   1.046       .  S
C1593      C1594   1.413       .  A
C1593      C1598   1.407       .  A
C1594      C1595   1.412       .  A
C1594      N1599   1.438       .  S
C1595      C1596   1.407       .  A
C1595      H1600   1.084       .  S
C1596      C1601   1.512       .  S
C1596      C1597   1.415       .  A
C1597      C1598   1.419       .  A
C1597      N1602   1.431       .  S
C1598      H1603   1.083       .  S
N1599      H1619   1.046       .  S
N1599      H1620   1.046       .  S
C1601      C1604   1.392       .  A
C1601      C1608   1.422       .  A
N1602      H1617   1.046       .  S
N1602      H1618   1.045       .  S
C1604      C1605   1.404       .  A
C1604      H1609   1.085       .  S
C1605      C1606   1.447       .  A
C1605      N1610   1.433       .  S
C1606      C1607   1.422       .  A
C1606      C2733   1.599   1_455  S
C1607      C1608   1.421       .  A
C1607      H1611   1.082       .  S
C1608      N1612   1.438       .  S
N1610      H1613   1.046       .  S
N1610      H1614   1.046       .  S
N1612      H1615   1.043       .  S
N1612      H1616   1.046       .  S
C1621      C1622   1.416       .  A
C1621      C1626   1.404       .  A
C1622      C1623   1.412       .  A
C1622      N1627   1.438       .  S
C1623      C1624   1.404       .  A
C1623      H1628   1.084       .  S
C1624      C1629   1.505       .  S
C1624      C1625   1.418       .  A
C1625      C1626   1.417       .  A
C1625      N1630   1.437       .  S
C1626      H1631   1.084       .  S
N1627      H1647   1.046       .  S
N1627      H1648   1.046       .  S
C1629      C1632   1.396       .  A
C1629      C1636   1.416       .  A
N1630      H1645   1.046       .  S
N1630      H1646   1.046       .  S
C1632      C1633   1.402       .  A
C1632      H1637   1.084       .  S
C1633      C1634   1.432       .  A
C1633      N1638   1.434       .  S
C1634      C1635   1.414       .  A
C1635      C1636   1.421       .  A
C1635      H1639   1.079       .  S
C1636      N1640   1.437       .  S
N1638      H1641   1.046       .  S
N1638      H1642   1.046       .  S
N1640      H1643   1.045       .  S
N1640      H1644   1.046       .  S
C1649      C1650   1.416       .  A
C1649      C1654   1.408       .  A
C1650      C1651   1.425       .  A
C1650      N1655   1.437       .  S
C1651      C1652   1.414       .  A
C1651      H1656   1.083       .  S
C1652      C1657   1.516       .  S
C1652      C1653   1.414       .  A
C1653      C1654   1.411       .  A
C1653      N1658   1.438       .  S
C1654      H1659   1.084       .  S
N1655      H1675   1.046       .  S
N1655      H1676   1.046       .  S
C1657      C1660   1.402       .  A
C1657      C1664   1.414       .  A
N1658      H1673   1.045       .  S
N1658      H1674   1.046       .  S
C1660      C1661   1.411       .  A
C1660      H1665   1.084       .  S
C1661      C1662   1.432       .  A
C1661      N1666   1.432       .  S
C1662      C1663   1.420       .  A
C1663      C1664   1.422       .  A
C1663      H1667   1.083       .  S
C1664      N1668   1.437       .  S
N1666      H1669   1.046       .  S
N1666      H1670   1.045       .  S
N1668      H1671   1.046       .  S
N1668      H1672   1.046       .  S
C1677      C1678   1.413       .  A
C1677      C1682   1.406       .  A
C1678      C1679   1.408       .  A
C1678      N1683   1.433       .  S
C1679      C1680   1.405       .  A
C1679      H1684   1.083       .  S
C1680      C1685   1.513       .  S
C1680      C1681   1.421       .  A
C1681      C1682   1.422       .  A
C1681      N1686   1.437       .  S
C1682      H1687   1.083       .  S
N1683      H1703   1.045       .  S
N1683      H1704   1.045       .  S
C1685      C1688   1.406       .  A
C1685      C1692   1.413       .  A
N1686      H1701   1.045       .  S
N1686      H1702   1.046       .  S
C1688      C1689   1.416       .  A
C1688      H1693   1.084       .  S
C1689      C1690   1.424       .  A
C1689      N1694   1.429       .  S
C1690      C1691   1.420       .  A
C1691      C1692   1.413       .  A
C1691      H1695   1.079       .  S
C1692      N1696   1.438       .  S
N1694      H1697   1.046       .  S
N1694      H1698   1.045       .  S
N1696      H1699   1.046       .  S
N1696      H1700   1.046       .  S
O1705      C1716   1.305       .  A
O1705     Eu1741   2.537       .  S
O1706      C1717   1.305       .  A
O1706     Eu1740   2.540       .  S
O1707      C1718   1.287       .  A
O1707     Eu1713   2.434       .  S
O1708      C1719   1.286       .  A
O1708     Eu1713   2.437       .  S
O1709      C1719   1.291       .  A
O1709     Eu1743   2.465       .  S
O1710      C1718   1.286       .  A
O1710     Eu1742   2.439       .  S
O1711      C1717   1.284       .  A
O1711     Eu1713   2.417       .  S
O1712      C1716   1.287       .  A
O1712     Eu1713   2.431       .  S
Eu1713     O1723   2.347       .  S
Eu1713     O1715   2.340       .  S
Eu1713     O1714   2.350       .  S
Eu1713     O1721   2.345       .  S
O1714     Eu1743   2.345       .  S
O1714     Eu1740   2.384       .  S
O1715     Eu1741   2.375       .  S
O1715     Eu1742   2.346       .  S
C1716      C2529   1.495       .  S
C1717      C2290   1.491       .  S
C1718      C2346   1.484       .  S
C1719      C2374   1.482       .  S
H1720      O1721   0.963       .  S
O1721     Eu1742   2.353       .  S
O1721     Eu1740   2.381       .  S
H1722      O1723   0.966       .  S
O1723     Eu1741   2.370       .  S
O1723     Eu1743   2.345       .  S
O1724      C1747   1.307       .  A
O1724     Eu1740   2.545       .  S
O1725      C1748   1.304       .  A
O1725     Eu1741   2.535       .  S
O1726      C1749   1.285       .  A
O1726     Eu1742   2.420       .  S
O1727      C1750   1.284       .  A
O1727     Eu1743   2.412       .  S
O1728      C1751   1.284       .  A
O1728     Eu1743   2.412       .  S
O1729      C1752   1.288       .  A
O1729     Eu1742   2.441       .  S
O1730      C1753   1.287       .  A
O1730     Eu1744   2.443       .  S
O1731      C1754   1.286       .  A
O1731     Eu1744   2.431       .  S
O1732      C1753   1.287       .  A
O1732     Eu1742   2.449       .  S
O1733      C1754   1.287       .  A
O1733     Eu1743   2.444       .  S
O1734      C1749   1.308       .  A
O1734     Eu1740   2.552       .  S
O1735      C1752   1.305       .  A
O1735     Eu1741   2.537       .  S
O1736      C1751   1.309       .  A
O1736     Eu1741   2.563       .  S
O1737      C1750   1.310       .  A
O1737     Eu1740   2.568       .  S
O1738      C1747   1.285       .  A
O1738     Eu1744   2.424       .  S
O1739      C1748   1.284       .  A
O1739     Eu1744   2.414       .  S
Eu1740     O1758   2.374       .  S
Eu1740     O1746   2.386       .  S
Eu1741     O1745   2.371       .  S
Eu1741     O1756   2.374       .  S
Eu1742     O1756   2.338       .  S
Eu1742     O1746   2.353       .  S
Eu1743     O1745   2.348       .  S
Eu1743     O1758   2.355       .  S
Eu1744     O1745   2.347       .  S
Eu1744     O1756   2.345       .  S
Eu1744     O1758   2.349       .  S
Eu1744     O1746   2.342       .  S
C1747      C2305   1.508       .  S
C1748      C2501   1.487       .  S
C1749      C2221   1.493       .  S
C1750      C2262   1.519       .  S
C1751      C2445   1.499       .  S
C1752      C2473   1.496       .  S
C1753      C2430   1.489       .  S
C1754      C2402   1.479       .  S
H1755      O1756   0.963       .  S
H1757      O1758   0.966       .  S
N1759      H1791   1.040       .  S
N1759      C1763   1.353       .  A
N1760      C2619   1.347   1_545  A
N1760      C1768   1.347       .  A
N1761      H1792   1.041       .  S
N1761      C1765   1.351       .  A
N1762      C2621   1.349       .  A
N1762      C1770   1.352   1_565  A
C1763      C1771   1.386       .  A
C1763      C1779   1.410       .  A
C1764      C1780   1.411       .  A
C1764      C1772   1.388       .  A
C1765      C1773   1.388       .  A
C1765      C1782   1.412       .  A
C1766      C1781   1.411       .  A
C1766      C1774   1.387       .  A
C1767      N2612   1.349       .  A
C1767      C1779   1.405       .  A
C1767      C1775   1.385       .  A
C1768      C1782   1.406       .  A
C1768      C1776   1.387       .  A
C1769      N2614   1.347       .  A
C1769      C1777   1.387       .  A
C1769      C1780   1.408       .  A
C1770      C1778   1.384       .  A
C1770      C1781   1.409       .  A
C1771      H1783   1.082       .  S
C1772      H1784   1.082       .  S
C1773      H1785   1.082       .  S
C1774      H1786   1.082       .  S
C1775      C2628   1.370       .  A
C1775      H1787   1.082       .  S
C1776      C2627   1.372   1_545  A
C1776      H1788   1.083       .  S
C1777      C2630   1.371       .  A
C1777      H1789   1.083       .  S
C1778      C2629   1.371   1_545  A
C1778      H1790   1.082       .  S
C1779      C2417   1.480       .  S
C1780      C2389   1.473       .  S
C1781      C2361   1.484       .  S
C1782      C2333   1.476       .  S
O1793      C1804   1.308       .  A
O1793     Eu2681   2.557       .  S
O1794      C1805   1.306   1_655  A
O1794     Eu1828   2.548   1_655  S
O1795      C1806   1.288       .  A
O1796      C1807   1.286       .  A
O1796     Eu1801   2.439   1_655  S
O1797      C1807   1.286       .  A
O1797     Eu1831   2.432       .  S
O1798      C1806   1.285       .  A
O1798     Eu1830   2.426   1_554  S
O1799      C1805   1.284       .  A
O1799     Eu1801   2.417       .  S
O1800      C1804   1.286       .  A
O1800     Eu1801   2.422   1_556  S
Eu1801     O1811   2.356   1_454  S
Eu1801     O1802   2.339   1_455  S
O1802     Eu1831   2.332       .  S
O1802     Eu1828   2.362   1_655  S
O1803     Eu1830   2.347       .  S
C1804      C2206   1.520       .  S
C1805      C1941   1.494       .  S
C1806      C1997   1.467       .  S
C1807      C2025   1.473       .  S
H1808      O1809   0.967       .  S
O1809     Eu1830   2.356   1_554  S
H1810      O1811   0.967       .  S
O1811     Eu2681   2.383   1_655  S
O1811     Eu1831   2.354   1_556  S
O1812      C1835   1.305       .  A
O1812     Eu2680   2.538       .  S
O1813      C1836   1.305       .  A
O1813     Eu1829   2.536   1_545  S
O1814      C1837   1.284       .  A
O1814     Eu1830   2.409   1_554  S
O1815      C1838   1.286       .  A
O1815     Eu1831   2.424       .  S
O1816      C1839   1.286       .  A
O1816     Eu2683   2.426       .  S
O1817      C1840   1.286       .  A
O1817     Eu2682   2.424       .  S
O1818      C1841   1.285   1_556  A
O1819      C1842   1.287       .  A
O1819     Eu1832   2.447       .  S
O1820      C1841   1.286       .  A
O1820     Eu2682   2.440   1_554  S
O1821      C1842   1.287       .  A
O1821     Eu2683   2.436   1_545  S
O1822      C1837   1.309       .  A
O1823      C1840   1.304       .  A
O1824      C1839   1.304       .  A
O1824     Eu1829   2.530       .  S
O1825      C1838   1.309       .  A
O1825     Eu1828   2.565   1_655  S
O1826      C1835   1.286   1_655  A
O1826     Eu1832   2.421   1_554  S
O1827      C1836   1.284       .  A
O1827     Eu1832   2.408       .  S
Eu1828     O2664   2.537       .  S
Eu1828     O2698   2.381   1_455  S
Eu1829     O2645   2.544   1_655  S
Eu1829     O2663   2.386       .  S
Eu1829     O1833   2.382   1_565  S
Eu1830     O2669   2.429       .  S
Eu1830     O2672   2.460   1_556  S
Eu1830     O2696   2.338       .  S
Eu1830     O2686   2.336   1_556  S
Eu1831     O2668   2.424   1_554  S
Eu1831     O2673   2.432   1_554  S
Eu1831     O2685   2.341   1_554  S
Eu1831     O2698   2.353       .  S
Eu1832     O1833   2.350       .  S
Eu1832     O1846   2.344   1_556  S
O1833     Eu2683   2.341   1_545  S
O1834     Eu2682   2.338   1_554  S
C1835      C1969   1.510       .  S
C1836      C2165   1.484       .  S
C1837      C1885   1.519       .  S
C1838      C1913   1.521       .  S
C1839      C2109   1.489       .  S
C1840      C2137   1.493       .  S
C1841      C2094   1.481       .  S
C1842      C2053   1.485   1_556  S
H1843      O1844   0.963       .  S
O1844     Eu2682   2.340       .  S
H1845      O1846   0.964       .  S
O1846     Eu2680   2.384   1_655  S
O1846     Eu2683   2.354   1_544  S
N1847      H1879   1.038       .  S
N1847      C1852   1.350       .  A
N1847      C1851   1.349       .  A
N1848      C1855   1.345       .  A
N1848      C1856   1.347       .  A
N1849      H1880   1.037       .  S
N1849      C1854   1.346       .  A
N1849      C1853   1.349       .  A
N1850      C1857   1.351       .  A
N1850      C1858   1.349       .  A
C1851      C1859   1.386       .  A
C1851      C1867   1.408       .  A
C1852      C1868   1.408       .  A
C1852      C1860   1.387       .  A
C1853      C1861   1.387       .  A
C1853      C1870   1.409       .  A
C1854      C1869   1.405       .  A
C1854      C1862   1.386       .  A
C1855      C1867   1.406       .  A
C1855      C1863   1.387       .  A
C1856      C1870   1.405       .  A
C1856      C1864   1.386       .  A
C1857      C1865   1.385       .  A
C1857      C1868   1.408       .  A
C1858      C1866   1.388       .  A
C1858      C1869   1.411       .  A
C1859      C1860   1.375       .  A
C1859      H1871   1.082       .  S
C1860      H1872   1.081       .  S
C1861      C1862   1.376       .  A
C1861      H1873   1.082       .  S
C1862      H1874   1.082       .  S
C1863      C1864   1.371       .  A
C1863      H1875   1.082       .  S
C1864      H1876   1.082       .  S
C1865      C1866   1.370       .  A
C1865      H1877   1.082       .  S
C1866      H1878   1.082       .  S
C1867      C2010   1.471       .  S
C1868      C2038   1.477       .  S
C1869      C2066   1.472       .  S
C1870      C2081   1.472       .  S
C1881      C1954   1.578       .  S
C1881      C1982   1.599   1_655  S
C1881      C2486   1.589       .  S
C1882      C2750   1.580   1_565  S
C1882      C2778   1.586       .  S
C1882      C3366   1.586       .  S
C1882      C2542   1.589   1_565  S
C1883      C2178   1.574       .  S
C1883      C2193   1.587       .  S
C1883      C2234   1.579       .  S
C1884      C2122   1.579   1_545  S
C1884      C2150   1.581       .  S
C1884      C2277   1.581       .  S
C1884      C3170   1.586   1_545  S
C1885      C1886   1.416       .  A
C1885      C2742   1.418       .  A
C1886      C1887   1.426       .  A
C1886      N1891   1.436       .  S
C1887      C1888   1.415       .  A
C1887      H1892   1.083       .  S
C1888      C1893   1.511       .  S
C1888      C2741   1.407       .  A
C1889      C2740   1.407       .  A
C1889      C1890   1.408       .  A
C1889      N1894   1.439       .  S
C1890      C2737   1.415       .  A
C1890      H1895   1.083       .  S
N1891      H1911   1.045       .  S
N1891      H1912   1.046       .  S
C1893      C2748   1.406       .  A
C1893      C1900   1.410       .  A
N1894      H1909   1.045       .  S
N1894      H1910   1.044       .  S
C1896      C2745   1.403   1_565  A
C1896      C1897   1.415       .  A
C1896      H1901   1.084       .  S
C1897      C2750   1.427   1_565  A
C1897      N1902   1.432       .  S
C1898      C2749   1.424       .  A
C1898      C1899   1.421       .  A
C1898      C2734   1.582       .  S
C1899      C1900   1.416       .  A
C1899      H1903   1.077       .  S
C1900      N1904   1.438       .  S
N1902      H1905   1.045       .  S
N1902      H1906   1.046       .  S
N1904      H1907   1.046       .  S
N1904      H1908   1.046       .  S
C1913      C2766   1.418       .  A
C1913      C1918   1.417       .  A
C1914      C2765   1.414   1_565  A
C1914      C1915   1.424       .  A
C1914      N1919   1.435       .  S
C1915      C2768   1.414       .  A
C1915      H1920   1.083       .  S
C1916      C1921   1.512       .  S
C1916      C2767   1.415       .  A
C1916      C1917   1.407       .  A
C1917      C1918   1.407       .  A
C1917      N1922   1.439       .  S
C1918      H1923   1.082       .  S
N1919      H1939   1.045   1_565  S
N1919      H1940   1.046       .  S
C1921      C2776   1.407       .  A
C1921      C1928   1.410       .  A
N1922      H1937   1.046       .  S
N1922      H1938   1.046       .  S
C1924      C2773   1.404   1_545  A
C1924      C1925   1.408       .  A
C1924      H1929   1.084       .  S
C1925      C2778   1.426   1_545  A
C1925      N1930   1.433       .  S
C1926      C2777   1.425       .  A
C1926      C1927   1.421       .  A
C1926      C2734   1.591       .  S
C1927      C1928   1.416       .  A
C1927      H1931   1.078       .  S
C1928      N1932   1.438       .  S
N1930      H1933   1.045       .  S
N1930      H1934   1.046       .  S
N1932      H1935   1.046       .  S
N1932      H1936   1.046       .  S
C1941      C1946   1.407   1_455  A
C1942      C1943   1.405       .  A
C1942      N1947   1.433       .  S
C1943      H1948   1.084       .  S
C1944      C1949   1.503       .  S
C1944      C1945   1.417       .  A
C1945      C1946   1.420       .  A
C1945      N1950   1.437       .  S
C1946      H1951   1.084       .  S
N1947      H1967   1.046       .  S
N1947      H1968   1.046       .  S
C1949      C1952   1.396       .  A
N1950      H1965   1.046       .  S
N1950      H1966   1.046       .  S
C1952      C1953   1.405       .  A
C1952      H1957   1.084       .  S
C1953      C1954   1.432       .  A
C1953      N1958   1.433       .  S
C1955      C1956   1.419       .  A
C1955      H1959   1.079       .  S
C1956      N1960   1.437       .  S
N1958      H1961   1.046       .  S
N1958      H1962   1.045   1_655  S
N1960      H1963   1.046       .  S
N1960      H1964   1.046       .  S
C1969      C1974   1.416   1_455  A
C1970      C1971   1.419       .  A
C1970      N1975   1.437       .  S
C1971      H1976   1.083       .  S
C1972      C1977   1.498       .  S
C1972      C1973   1.405   1_455  A
C1973      C1974   1.405       .  A
C1973      N1978   1.439       .  S
C1974      H1979   1.083       .  S
N1975      H1995   1.046       .  S
N1975      H1996   1.046       .  S
C1977      C1984   1.398   1_455  A
N1978      H1993   1.046       .  S
N1978      H1994   1.046       .  S
C1980      C1981   1.413       .  A
C1980      H1985   1.084       .  S
C1981      N1986   1.435       .  S
C1982      C1983   1.431   1_455  A
C1983      C1984   1.406       .  A
C1983      H1987   1.078       .  S
C1984      N1988   1.439       .  S
N1986      H1989   1.046       .  S
N1986      H1990   1.030       .  S
N1988      H1991   1.045       .  S
N1988      H1992   1.046       .  S
C1997      C1998   1.412   1_554  A
C1997      C2002   1.406       .  A
C1998      C1999   1.394   1_556  A
C1998      N2003   1.432       .  S
C1999      C2000   1.400       .  A
C1999      H2004   1.084   1_554  S
C2000      C2005   1.463       .  S
C2000      C2001   1.405       .  A
C2001      C2002   1.399       .  A
C2001      N2006   1.439       .  S
C2002      H2007   1.084       .  S
N2003      H2023   1.046       .  S
N2003      H2024   1.044       .  S
C2005      C2008   1.400       .  A
C2005      C2012   1.409       .  A
N2006      H2021   1.046       .  S
N2006      H2022   1.044       .  S
C2008      C2009   1.397       .  A
C2008      H2013   1.084   1_554  S
C2009      C2010   1.405       .  A
C2009      N2014   1.432       .  S
C2010      C2011   1.400       .  A
C2011      C2012   1.399       .  A
C2011      H2015   1.084       .  S
C2012      N2016   1.439       .  S
N2014      H2017   1.045       .  S
N2014      H2018   1.046   1_554  S
N2016      H2019   1.046       .  S
N2016      H2020   1.044       .  S
C2025      C2026   1.410       .  A
C2025      C2030   1.406       .  A
C2026      C2027   1.399       .  A
C2026      N2031   1.433   1_554  S
C2027      C2028   1.402       .  A
C2027      H2032   1.084       .  S
C2028      C2033   1.474       .  S
C2028      C2029   1.408       .  A
C2029      C2030   1.400       .  A
C2029      N2034   1.439       .  S
C2030      H2035   1.084       .  S
N2031      H2051   1.046   1_556  S
N2031      H2052   1.046       .  S
C2033      C2036   1.404       .  A
C2033      C2040   1.409       .  A
N2034      H2049   1.046       .  S
N2034      H2050   1.046       .  S
C2036      C2037   1.404       .  A
C2036      H2041   1.084       .  S
C2037      C2038   1.407       .  A
C2037      N2042   1.437       .  S
C2038      C2039   1.400       .  A
C2039      C2040   1.398       .  A
C2039      H2043   1.084       .  S
C2040      N2044   1.438   1_554  S
N2042      H2045   1.046       .  S
N2042      H2046   1.045       .  S
N2044      H2047   1.046       .  S
N2044      H2048   1.046       .  S
C2053      C2054   1.416       .  A
C2053      C2058   1.411       .  A
C2054      C2055   1.399       .  A
C2054      N2059   1.433   1_554  S
C2055      C2056   1.398       .  A
C2055      H2060   1.084       .  S
C2056      C2061   1.465       .  S
C2056      C2057   1.402       .  A
C2057      C2058   1.400       .  A
C2057      N2062   1.438       .  S
C2058      H2063   1.083       .  S
N2059      H2079   1.046   1_556  S
N2059      H2080   1.046       .  S
C2061      C2064   1.397       .  A
C2061      C2068   1.408       .  A
N2062      H2077   1.045       .  S
N2062      H2078   1.046       .  S
C2064      C2065   1.399       .  A
C2064      H2069   1.084   1_554  S
C2065      C2066   1.411       .  A
C2065      N2070   1.439       .  S
C2066      C2067   1.398       .  A
C2067      C2068   1.400       .  A
C2067      H2071   1.084       .  S
C2068      N2072   1.437       .  S
N2070      H2073   1.046   1_554  S
N2070      H2074   1.045       .  S
N2072      H2075   1.046       .  S
N2072      H2076   1.045       .  S
C2081      C2082   1.410       .  A
C2081      C2086   1.400       .  A
C2082      C2083   1.391       .  A
C2082      N2087   1.433   1_554  S
C2083      C2084   1.400       .  A
C2083      H2088   1.084   1_554  S
C2084      C2089   1.471       .  S
C2084      C2085   1.410       .  A
C2085      C2086   1.401       .  A
C2085      N2090   1.432       .  S
C2086      H2091   1.084       .  S
N2087      H2107   1.045       .  S
N2087      H2108   1.045   1_556  S
C2089      C2092   1.400       .  A
C2089      C2096   1.404       .  A
N2090      H2105   1.046       .  S
N2090      H2106   1.046       .  S
C2092      C2093   1.397       .  A
C2092      H2097   1.084       .  S
C2093      C2094   1.414       .  A
C2093      N2098   1.433   1_554  S
C2094      C2095   1.409       .  A
C2095      C2096   1.399       .  A
C2095      H2099   1.084       .  S
C2096      N2100   1.433       .  S
N2098      H2101   1.046       .  S
N2098      H2102   1.045   1_556  S
N2100      H2103   1.046       .  S
N2100      H2104   1.046       .  S
C2109      C2110   1.415   1_565  A
C2109      C2966   1.406       .  A
C2110      C2111   1.406       .  A
C2110      N2115   1.438       .  S
C2111      C2964   1.399   1_545  A
C2111      H2116   1.084       .  S
C2112      C2117   1.500       .  S
C2112      C2963   1.400       .  A
C2112      C2113   1.416       .  A
C2113      C2114   1.419       .  A
C2113      N2118   1.437       .  S
C2114      C2961   1.405       .  A
C2114      H2119   1.083       .  S
N2115      H2135   1.046       .  S
N2115      H2136   1.046       .  S
C2117      C2972   1.393       .  A
C2117      C2124   1.411       .  A
N2118      H2133   1.045       .  S
N2118      H2134   1.046       .  S
C2120      C2969   1.392       .  A
C2120      C2121   1.404   1_565  A
C2120      H2125   1.084   1_565  S
C2121      C2122   1.433   1_545  A
C2121      N2126   1.431       .  S
C2122      C2975   1.419       .  A
C2123      C2974   1.416       .  A
C2123      C2124   1.419       .  A
C2123      H2127   1.077       .  S
C2124      N2128   1.437       .  S
N2126      H2129   1.046       .  S
N2126      H2130   1.046   1_545  S
N2128      H2131   1.045       .  S
N2128      H2132   1.045       .  S
C2137      C2990   1.417   1_545  A
C2137      C2142   1.406       .  A
C2138      C2989   1.416       .  A
C2138      C2139   1.408       .  A
C2138      N2143   1.439       .  S
C2139      C2992   1.401       .  A
C2139      H2144   1.084       .  S
C2140      C2145   1.501       .  S
C2140      C2991   1.401   1_545  A
C2140      C2141   1.418       .  A
C2141      C2142   1.419       .  A
C2141      N2146   1.437       .  S
C2142      H2147   1.084       .  S
N2143      H2163   1.046       .  S
N2143      H2164   1.046       .  S
C2145      C3000   1.395       .  A
C2145      C2152   1.420       .  A
N2146      H2161   1.046       .  S
N2146      H2162   1.046       .  S
C2148      C2997   1.394       .  A
C2148      C2149   1.403       .  A
C2148      H2153   1.084       .  S
C2149      C3002   1.433       .  A
C2149      N2154   1.432       .  S
C2150      C3001   1.431       .  A
C2150      C2151   1.417       .  A
C2151      C2152   1.414       .  A
C2151      H2155   1.077       .  S
C2152      N2156   1.439       .  S
N2154      H2157   1.046       .  S
N2154      H2158   1.046       .  S
N2156      H2159   1.046       .  S
N2156      H2160   1.043       .  S
C2165      C2166   1.414   1_655  A
C2166      C2167   1.402       .  A
C2166      N2171   1.433       .  S
C2167      H2172   1.084       .  S
C2168      C2173   1.498       .  S
C2168      C2169   1.417       .  A
C2169      C2170   1.416       .  A
C2169      N2174   1.437       .  S
C2170      H2175   1.084       .  S
N2171      H2191   1.045       .  S
N2171      H2192   1.045       .  S
C2173      C2176   1.395       .  A
N2174      H2189   1.046       .  S
N2174      H2190   1.046       .  S
C2176      C2177   1.402       .  A
C2176      H2181   1.084       .  S
C2177      N2182   1.434       .  S
C2178      C2179   1.413       .  A
C2179      C2180   1.418       .  A
C2179      H2183   1.080       .  S
C2180      N2184   1.437       .  S
N2182      H2185   1.046       .  S
N2182      H2186   1.046       .  S
N2184      H2187   1.046       .  S
N2184      H2188   1.046       .  S
C2193      C2194   1.427   1_655  A
C2194      C2195   1.420       .  A
C2194      N2199   1.432       .  S
C2195      C2196   1.408       .  A
C2195      H2200   1.083       .  S
C2196      C2201   1.511       .  S
C2197      C2198   1.406       .  A
C2197      N2202   1.433       .  S
C2198      H2203   1.075       .  S
N2199      H2219   1.046       .  S
N2199      H2220   1.045       .  S
C2201      C2208   1.407       .  A
N2202      H2217   1.046       .  S
N2202      H2218   1.046       .  S
C2204      C2205   1.421       .  A
C2204      H2209   1.083       .  S
C2205      N2210   1.437       .  S
C2206      C2207   1.419       .  A
C2207      C2208   1.409       .  A
C2207      H2211   1.082       .  S
C2208      N2212   1.439       .  S
N2210      H2213   1.045       .  S
N2210      H2214   1.046       .  S
N2212      H2215   1.046       .  S
N2212      H2216   1.046   1_455  S
C2221      C2222   1.415       .  A
C2221      C2226   1.405       .  A
C2222      C2223   1.410       .  A
C2222      N2227   1.433       .  S
C2223      C2224   1.403       .  A
C2223      H2228   1.084       .  S
C2224      C2229   1.501       .  S
C2224      C2225   1.416       .  A
C2225      C2226   1.417       .  A
C2225      N2230   1.437       .  S
C2226      H2231   1.084       .  S
N2227      H2247   1.046       .  S
N2227      H2248   1.046       .  S
C2229      C2232   1.395       .  A
C2229      C2236   1.414       .  A
N2230      H2245   1.046       .  S
N2230      H2246   1.046       .  S
C2232      C2233   1.403       .  A
C2232      H2237   1.084       .  S
C2233      C2234   1.429       .  A
C2233      N2238   1.433       .  S
C2234      C2235   1.417       .  A
C2235      C2236   1.421       .  A
C2235      H2239   1.080       .  S
C2236      N2240   1.437       .  S
N2238      H2241   1.046       .  S
N2238      H2242   1.046       .  S
N2240      H2243   1.046       .  S
N2240      H2244   1.046       .  S
C2249      C2250   1.426       .  A
C2249      C2254   1.430       .  A
C2250      C2251   1.422       .  A
C2250      N2255   1.432       .  S
C2251      C2252   1.408       .  A
C2251      H2256   1.083       .  S
C2252      C2257   1.503       .  S
C2252      C2253   1.400       .  A
C2253      C2254   1.406       .  A
C2253      N2258   1.440       .  S
C2254      H2259   1.076       .  S
N2255      H2275   1.045       .  S
N2255      H2276   1.046       .  S
C2257      C2260   1.412       .  A
C2257      C2264   1.405       .  A
N2258      H2273   1.045       .  S
N2258      H2274   1.045       .  S
C2260      C2261   1.425       .  A
C2260      H2265   1.083       .  S
C2261      C2262   1.417       .  A
C2261      N2266   1.436       .  S
C2262      C2263   1.419       .  A
C2263      C2264   1.407       .  A
C2263      H2267   1.083       .  S
C2264      N2268   1.439       .  S
N2266      H2269   1.045       .  S
N2266      H2270   1.046       .  S
N2268      H2271   1.045       .  S
N2268      H2272   1.045       .  S
C2277      C2278   1.434       .  A
C2277      C2282   1.418       .  A
C2278      C2279   1.405       .  A
C2278      N2283   1.432       .  S
C2279      C2280   1.392       .  A
C2279      H2284   1.084       .  S
C2280      C2285   1.497       .  S
C2280      C2281   1.410       .  A
C2281      C2282   1.418       .  A
C2281      N2286   1.437       .  S
C2282      H2287   1.076       .  S
N2283      H2303   1.046       .  S
N2283      H2304   1.046       .  S
C2285      C2288   1.400       .  A
C2285      C2292   1.415       .  A
N2286      H2301   1.046       .  S
N2286      H2302   1.045       .  S
C2288      C2289   1.409       .  A
C2288      H2293   1.084       .  S
C2289      C2290   1.418       .  A
C2289      N2294   1.439       .  S
C2290      C2291   1.405       .  A
C2291      C2292   1.418       .  A
C2291      H2295   1.083       .  S
C2292      N2296   1.437       .  S
N2294      H2297   1.046       .  S
N2294      H2298   1.046       .  S
N2296      H2299   1.046       .  S
N2296      H2300   1.046       .  S
C2305      C2306   1.425       .  A
C2305      C2310   1.405       .  A
C2306      C2307   1.410       .  A
C2306      N2311   1.440       .  S
C2307      C2308   1.401       .  A
C2307      H2312   1.084       .  S
C2308      C2313   1.509       .  S
C2308      C2309   1.419       .  A
C2309      C2310   1.419       .  A
C2309      N2314   1.437       .  S
C2310      H2315   1.083       .  S
N2311      H2331   1.046       .  S
N2311      H2332   1.046       .  S
C2313      C2316   1.396       .  A
C2313      C2320   1.416       .  A
N2314      H2329   1.045       .  S
N2314      H2330   1.045       .  S
C2316      C2317   1.405       .  A
C2316      H2321   1.084       .  S
C2317      C2318   1.433       .  A
C2317      N2322   1.432       .  S
C2318      C2319   1.416       .  A
C2318      C2736   1.581       .  S
C2319      C2320   1.421       .  A
C2319      H2323   1.077       .  S
C2320      N2324   1.437       .  S
N2322      H2325   1.046       .  S
N2322      H2326   1.046       .  S
N2324      H2327   1.046       .  S
N2324      H2328   1.046       .  S
C2333      C2334   1.411       .  A
C2333      C2338   1.399       .  A
C2334      C2335   1.392       .  A
C2334      N2339   1.433       .  S
C2335      C2336   1.400       .  A
C2335      H2340   1.084       .  S
C2336      C2341   1.472       .  S
C2336      C2337   1.412       .  A
C2337      C2338   1.403       .  A
C2337      N2342   1.438       .  S
C2338      H2343   1.084       .  S
N2339      H2359   1.045       .  S
N2339      H2360   1.045       .  S
C2341      C2344   1.401       .  A
C2341      C2348   1.405       .  A
N2342      H2357   1.046       .  S
N2342      H2358   1.046       .  S
C2344      C2345   1.404       .  A
C2344      H2349   1.084       .  S
C2345      C2346   1.418       .  A
C2345      N2350   1.438       .  S
C2346      C2347   1.408       .  A
C2347      C2348   1.397       .  A
C2347      H2351   1.083       .  S
C2348      N2352   1.439       .  S
N2350      H2353   1.046       .  S
N2350      H2354   1.046       .  S
N2352      H2355   1.046       .  S
N2352      H2356   1.046       .  S
C2361      C2362   1.412       .  A
C2361      C2366   1.402       .  A
C2362      C2363   1.395       .  A
C2362      N2367   1.433       .  S
C2363      C2364   1.400       .  A
C2363      H2368   1.084       .  S
C2364      C2369   1.477       .  S
C2364      C2365   1.412       .  A
C2365      C2366   1.407       .  A
C2365      N2370   1.438       .  S
C2366      H2371   1.084       .  S
N2367      H2387   1.045       .  S
N2367      H2388   1.045       .  S
C2369      C2372   1.397       .  A
C2369      C2376   1.410       .  A
N2370      H2385   1.046       .  S
N2370      H2386   1.046       .  S
C2372      C2373   1.403       .  A
C2372      H2377   1.084       .  S
C2373      C2374   1.418       .  A
C2373      N2378   1.438       .  S
C2374      C2375   1.404       .  A
C2375      C2376   1.406       .  A
C2375      H2379   1.084       .  S
C2376      N2380   1.438       .  S
N2378      H2381   1.045       .  S
N2378      H2382   1.046       .  S
N2380      H2383   1.046       .  S
N2380      H2384   1.046       .  S
C2389      C2390   1.413       .  A
C2389      C2394   1.399       .  A
C2390      C2391   1.392       .  A
C2390      N2395   1.434       .  S
C2391      C2392   1.398       .  A
C2391      H2396   1.084       .  S
C2392      C2397   1.462       .  S
C2392      C2393   1.408       .  A
C2393      C2394   1.400       .  A
C2393      N2398   1.438       .  S
C2394      H2399   1.084       .  S
N2395      H2415   1.046       .  S
N2395      H2416   1.045       .  S
C2397      C2400   1.397       .  A
C2397      C2404   1.403       .  A
N2398      H2413   1.046       .  S
N2398      H2414   1.045       .  S
C2400      C2401   1.400       .  A
C2400      H2405   1.084       .  S
C2401      C2402   1.415       .  A
C2401      N2406   1.433       .  S
C2402      C2403   1.408       .  A
C2403      C2404   1.398       .  A
C2403      H2407   1.083       .  S
C2404      N2408   1.438       .  S
N2406      H2409   1.046       .  S
N2406      H2410   1.045       .  S
N2408      H2411   1.044       .  S
N2408      H2412   1.046       .  S
C2417      C2418   1.409       .  A
C2417      C2422   1.402       .  A
C2418      C2419   1.399       .  A
C2418      N2423   1.432       .  S
C2419      C2420   1.403       .  A
C2419      H2424   1.084       .  S
C2420      C2425   1.470       .  S
C2420      C2421   1.409       .  A
C2421      C2422   1.395       .  A
C2421      N2426   1.433       .  S
C2422      H2427   1.084       .  S
N2423      H2443   1.046       .  S
N2423      H2444   1.045       .  S
C2425      C2428   1.396       .  A
C2425      C2432   1.402       .  A
N2426      H2441   1.045       .  S
N2426      H2442   1.045       .  S
C2428      C2429   1.399       .  A
C2428      H2433   1.084       .  S
C2429      C2430   1.418       .  A
C2429      N2434   1.433       .  S
C2430      C2431   1.412       .  A
C2431      C2432   1.403       .  A
C2431      H2435   1.083       .  S
C2432      N2436   1.432       .  S
N2434      H2437   1.046       .  S
N2434      H2438   1.046       .  S
N2436      H2439   1.046       .  S
N2436      H2440   1.046       .  S
C2445      C2446   1.419       .  A
C2445      C2450   1.407       .  A
C2446      C2447   1.408       .  A
C2446      N2451   1.437       .  S
C2447      C2448   1.400       .  A
C2447      H2452   1.084       .  S
C2448      C2453   1.500       .  S
C2448      C2449   1.414       .  A
C2449      C2450   1.420       .  A
C2449      N2454   1.431       .  S
C2450      H2455   1.083       .  S
N2451      H2471   1.045       .  S
N2451      H2472   1.046       .  S
C2453      C2456   1.392       .  A
C2453      C2460   1.411       .  A
N2454      H2469   1.045       .  S
N2454      H2470   1.045       .  S
C2456      C2457   1.403       .  A
C2456      H2461   1.085       .  S
C2457      C2458   1.444       .  A
C2457      N2462   1.433       .  S
C2458      C2459   1.421       .  A
C2459      C2460   1.420       .  A
C2459      H2463   1.082       .  S
C2460      N2464   1.437       .  S
N2462      H2465   1.046       .  S
N2462      H2466   1.046       .  S
N2464      H2467   1.046       .  S
N2464      H2468   1.044       .  S
C2473      C2474   1.416       .  A
C2473      C2478   1.404       .  A
C2474      C2475   1.414       .  A
C2474      N2479   1.438       .  S
C2475      C2476   1.405       .  A
C2475      H2480   1.083       .  S
C2476      C2481   1.511       .  S
C2476      C2477   1.419       .  A
C2477      C2478   1.418       .  A
C2477      N2482   1.437       .  S
C2478      H2483   1.084       .  S
N2479      H2499   1.046       .  S
N2479      H2500   1.046       .  S
C2481      C2484   1.397       .  A
C2481      C2488   1.417       .  A
N2482      H2497   1.046       .  S
N2482      H2498   1.046       .  S
C2484      C2485   1.406       .  A
C2484      H2489   1.084       .  S
C2485      C2486   1.433       .  A
C2485      N2490   1.433       .  S
C2486      C2487   1.416       .  A
C2487      C2488   1.423       .  A
C2487      H2491   1.079       .  S
C2488      N2492   1.437       .  S
N2490      H2493   1.046       .  S
N2490      H2494   1.046       .  S
N2492      H2495   1.045       .  S
N2492      H2496   1.046       .  S
C2501      C2502   1.415       .  A
C2501      C2506   1.403       .  A
C2502      C2503   1.422       .  A
C2502      N2507   1.437       .  S
C2503      C2504   1.413       .  A
C2503      H2508   1.083       .  S
C2504      C2509   1.506       .  S
C2504      C2505   1.411       .  A
C2505      C2506   1.400       .  A
C2505      N2510   1.432       .  S
C2506      H2511   1.085       .  S
N2507      H2527   1.046       .  S
N2507      H2528   1.046       .  S
C2509      C2512   1.401       .  A
C2509      C2516   1.411       .  A
N2510      H2525   1.046       .  S
N2510      H2526   1.045       .  S
C2512      C2513   1.404       .  A
C2512      H2517   1.083       .  S
C2513      C2514   1.430       .  A
C2513      N2518   1.433       .  S
C2514      C2515   1.419       .  A
C2514      C2734   1.582       .  S
C2515      C2516   1.416       .  A
C2515      H2519   1.083       .  S
C2516      N2520   1.431       .  S
N2518      H2521   1.046       .  S
N2518      H2522   1.046       .  S
N2520      H2523   1.046       .  S
N2520      H2524   1.045       .  S
C2529      C2530   1.413       .  A
C2529      C2534   1.406       .  A
C2530      C2531   1.406       .  A
C2530      N2535   1.433       .  S
C2531      C2532   1.405       .  A
C2531      H2536   1.084       .  S
C2532      C2537   1.509       .  S
C2532      C2533   1.419       .  A
C2533      C2534   1.420       .  A
C2533      N2538   1.437       .  S
C2534      H2539   1.083       .  S
N2535      H2555   1.045       .  S
N2535      H2556   1.046       .  S
C2537      C2540   1.406       .  A
C2537      C2544   1.411       .  A
N2538      H2553   1.046       .  S
N2538      H2554   1.045       .  S
C2540      C2541   1.416       .  A
C2540      H2545   1.083       .  S
C2541      C2542   1.424       .  A
C2541      N2546   1.430       .  S
C2542      C2543   1.419       .  A
C2543      C2544   1.411       .  A
C2543      H2547   1.078       .  S
C2544      N2548   1.439       .  S
N2546      H2549   1.046       .  S
N2546      H2550   1.045       .  S
N2548      H2551   1.046       .  S
N2548      H2552   1.046       .  S
O2557      C2568   1.303       .  A
O2557     Eu2593   2.530       .  S
O2558      C2569   1.307       .  A
O2558     Eu2592   2.549       .  S
O2559      C2570   1.290       .  A
O2559     Eu2565   2.456       .  S
O2560      C2571   1.285       .  A
O2560     Eu2565   2.430       .  S
O2561      C2571   1.290       .  A
O2561     Eu2595   2.455       .  S
O2562      C2570   1.283       .  A
O2562     Eu2594   2.427       .  S
O2563      C2569   1.283       .  A
O2563     Eu2565   2.406       .  S
O2564      C2568   1.285       .  A
O2564     Eu2565   2.418       .  S
Eu2565     O2575   2.348       .  S
Eu2565     O2567   2.335       .  S
Eu2565     O2566   2.352       .  S
Eu2565     O2573   2.343       .  S
O2566     Eu2595   2.350       .  S
O2566     Eu2592   2.384       .  S
O2567     Eu2593   2.370       .  S
O2567     Eu2594   2.335       .  S
C2568      C3381   1.488       .  S
C2569      C3142   1.495       .  S
C2570      C3198   1.488       .  S
C2571      C3226   1.483       .  S
H2572      O2573   0.965       .  S
O2573     Eu2594   2.352       .  S
O2573     Eu2592   2.387       .  S
H2574      O2575   0.966       .  S
O2575     Eu2593   2.368       .  S
O2575     Eu2595   2.344       .  S
O2576      C2599   1.308       .  A
O2576     Eu2592   2.557       .  S
O2577      C2600   1.304       .  A
O2577     Eu2593   2.537       .  S
O2578      C2601   1.286       .  A
O2578     Eu2594   2.428       .  S
O2579      C2602   1.287       .  A
O2579     Eu2595   2.425       .  S
O2580      C2603   1.287       .  A
O2580     Eu2595   2.438       .  S
O2581      C2604   1.290       .  A
O2581     Eu2594   2.455       .  S
O2582      C2605   1.288       .  A
O2582     Eu2596   2.444       .  S
O2583      C2606   1.290       .  A
O2583     Eu2596   2.455       .  S
O2584      C2605   1.284       .  A
O2584     Eu2594   2.425       .  S
O2585      C2606   1.286       .  A
O2585     Eu2595   2.439       .  S
O2586      C2601   1.305       .  A
O2586     Eu2592   2.539       .  S
O2587      C2604   1.301       .  A
O2587     Eu2593   2.515       .  S
O2588      C2603   1.303       .  A
O2588     Eu2593   2.529       .  S
O2589      C2602   1.307       .  A
O2589     Eu2592   2.548       .  S
O2590      C2599   1.286       .  A
O2590     Eu2596   2.430       .  S
O2591      C2600   1.284       .  A
O2591     Eu2596   2.418       .  S
Eu2592     O2610   2.382       .  S
Eu2592     O2598   2.380       .  S
Eu2593     O2597   2.365       .  S
Eu2593     O2608   2.371       .  S
Eu2594     O2608   2.345       .  S
Eu2594     O2598   2.355       .  S
Eu2595     O2597   2.342       .  S
Eu2595     O2610   2.359       .  S
Eu2596     O2597   2.342       .  S
Eu2596     O2608   2.351       .  S
Eu2596     O2610   2.347       .  S
Eu2596     O2598   2.345       .  S
C2599      C3157   1.514       .  S
C2600      C3353   1.489       .  S
C2601      C3073   1.488       .  S
C2602      C3114   1.514       .  S
C2603      C3297   1.491       .  S
C2604      C3325   1.492       .  S
C2605      C3282   1.481       .  S
C2606      C3254   1.492       .  S
H2607      O2608   0.969       .  S
H2609      O2610   0.966       .  S
N2611      H2643   1.040       .  S
N2611      C2615   1.352       .  A
N2612      C2620   1.348       .  A
N2613      H2644   1.039       .  S
N2613      C2617   1.351   1_455  A
N2614      C2622   1.350       .  A
C2615      C2623   1.388       .  A
C2615      C2631   1.411       .  A
C2616      C2632   1.413       .  A
C2616      C2624   1.387       .  A
C2617      C2625   1.387       .  A
C2617      C2634   1.411       .  A
C2618      C2633   1.410       .  A
C2618      C2626   1.387       .  A
C2619      C2631   1.405       .  A
C2619      C2627   1.386       .  A
C2620      C2634   1.408       .  A
C2620      C2628   1.387       .  A
C2621      C2629   1.387       .  A
C2621      C2632   1.411       .  A
C2622      C2630   1.385       .  A
C2622      C2633   1.407       .  A
C2623      H2635   1.082       .  S
C2624      H2636   1.082       .  S
C2625      H2637   1.082       .  S
C2626      H2638   1.082       .  S
C2627      H2639   1.083       .  S
C2628      H2640   1.082       .  S
C2629      H2641   1.082       .  S
C2630      H2642   1.083       .  S
C2631      C3269   1.475       .  S
C2632      C3241   1.480       .  S
C2633      C3213   1.481       .  S
C2634      C3185   1.477       .  S
O2645      C2656   1.306       .  A
O2646      C2657   1.304       .  A
O2646     Eu2680   2.535   1_565  S
O2647      C2658   1.286       .  A
O2648      C2659   1.285       .  A
O2648     Eu2653   2.429   1_655  S
O2649      C2659   1.289       .  A
O2649     Eu2683   2.450   1_554  S
O2650      C2658   1.285       .  A
O2650     Eu2682   2.427   1_564  S
O2651      C2657   1.288       .  A
O2651     Eu2653   2.442       .  S
O2652      C2656   1.289       .  A
O2652     Eu2653   2.436   1_556  S
Eu2653     O2663   2.350   1_454  S
Eu2653     O2654   2.340   1_455  S
O2654     Eu2683   2.337   1_554  S
O2654     Eu2680   2.372   1_665  S
O2655     Eu2682   2.343   1_565  S
C2656      C3058   1.510   1_455  S
C2657      C2793   1.496       .  S
C2658      C2849   1.481       .  S
C2659      C2877   1.473       .  S
H2660      O2661   0.964       .  S
O2661     Eu2682   2.352   1_564  S
H2662      O2663   0.967       .  S
O2663     Eu2683   2.342       .  S
O2664      C2687   1.305   1_455  A
O2665      C2688   1.306       .  A
O2665     Eu2681   2.546   1_655  S
O2666      C2689   1.283       .  A
O2666     Eu2682   2.407   1_554  S
O2667      C2690   1.282       .  A
O2667     Eu2683   2.399   1_544  S
O2668      C2691   1.286       .  A
O2669      C2692   1.287       .  A
O2670      C2693   1.288       .  A
O2671      C2694   1.286       .  A
O2671     Eu2684   2.435       .  S
O2672      C2693   1.289   1_554  A
O2673      C2694   1.286       .  A
O2674      C2689   1.310       .  A
O2675      C2692   1.303       .  A
O2676      C2691   1.305       .  A
O2676     Eu2681   2.540   1_655  S
O2677      C2690   1.310       .  A
O2677     Eu2680   2.572   1_655  S
O2678      C2687   1.289       .  A
O2678     Eu2684   2.443   1_554  S
O2679      C2688   1.286       .  A
O2679     Eu2684   2.428       .  S
Eu2681     O2685   2.377   1_455  S
Eu2684     O2685   2.344       .  S
Eu2684     O2698   2.348   1_556  S
C2687      C2821   1.514   1_655  S
C2688      C3017   1.492       .  S
C2689      C2737   1.505       .  S
C2690      C2765   1.515       .  S
C2691      C2961   1.497       .  S
C2692      C2989   1.490       .  S
C2693      C2946   1.497   1_556  S
C2694      C2905   1.471   1_556  S
H2695      O2696   0.962       .  S
H2697      O2698   0.962       .  S
N2699      H2731   1.037       .  S
N2699      C2704   1.349       .  A
N2699      C2703   1.347       .  A
N2700      C2707   1.349       .  A
N2700      C2708   1.350       .  A
N2701      H2732   1.037       .  S
N2701      C2706   1.349       .  A
N2701      C2705   1.352       .  A
N2702      C2709   1.350       .  A
N2702      C2710   1.348       .  A
C2703      C2711   1.387       .  A
C2703      C2719   1.407       .  A
C2704      C2720   1.406       .  A
C2704      C2712   1.386       .  A
C2705      C2713   1.386       .  A
C2705      C2722   1.412       .  A
C2706      C2721   1.411       .  A
C2706      C2714   1.387       .  A
C2707      C2719   1.411       .  A
C2707      C2715   1.388       .  A
C2708      C2722   1.407       .  A
C2708      C2716   1.385       .  A
C2709      C2717   1.385       .  A
C2709      C2720   1.408       .  A
C2710      C2718   1.388       .  A
C2710      C2721   1.409       .  A
C2711      C2712   1.376       .  A
C2711      H2723   1.082       .  S
C2712      H2724   1.082       .  S
C2713      C2714   1.377       .  A
C2713      H2725   1.082       .  S
C2714      H2726   1.082       .  S
C2715      C2716   1.370       .  A
C2715      H2727   1.082       .  S
C2716      H2728   1.082       .  S
C2717      C2718   1.369       .  A
C2717      H2729   1.082       .  S
C2718      H2730   1.082       .  S
C2719      C2862   1.474       .  S
C2720      C2890   1.476       .  S
C2721      C2918   1.474       .  S
C2722      C2933   1.483       .  S
C2733      C2806   1.583       .  S
C2733      C2834   1.604   1_655  S
C2733      C3338   1.585       .  S
C2734      C3394   1.584       .  S
C2735      C3030   1.582       .  S
C2735      C3045   1.592       .  S
C2735      C3086   1.580       .  S
C2736      C2974   1.582       .  S
C2736      C3002   1.580       .  S
C2736      C3129   1.576       .  S
C2737      C2738   1.413   1_545  A
C2738      C2739   1.421       .  A
C2738      N2743   1.436       .  S
C2739      C2740   1.409   1_565  A
C2739      H2744   1.083       .  S
C2740      C2745   1.498       .  S
C2741      C2742   1.404       .  A
C2741      N2746   1.439       .  S
C2742      H2747   1.082       .  S
N2743      H2763   1.045       .  S
N2743      H2764   1.046       .  S
C2745      C2752   1.407       .  A
N2746      H2761   1.046       .  S
N2746      H2762   1.046       .  S
C2748      C2749   1.411       .  A
C2748      H2753   1.084       .  S
C2749      N2754   1.432       .  S
C2750      C2751   1.419       .  A
C2751      C2752   1.410       .  A
C2751      H2755   1.076       .  S
C2752      N2756   1.439       .  S
N2754      H2757   1.045       .  S
N2754      H2758   1.045       .  S
N2756      H2759   1.046       .  S
N2756      H2760   1.044       .  S
C2765      C2770   1.418       .  A
C2766      C2767   1.427       .  A
C2766      N2771   1.436       .  S
C2767      H2772   1.083       .  S
C2768      C2773   1.508       .  S
C2768      C2769   1.408   1_565  A
C2769      C2770   1.404       .  A
C2769      N2774   1.439       .  S
C2770      H2775   1.083       .  S
N2771      H2791   1.046       .  S
N2771      H2792   1.046       .  S
C2773      C2780   1.410       .  A
N2774      H2789   1.045       .  S
N2774      H2790   1.046   1_545  S
C2776      C2777   1.414       .  A
C2776      H2781   1.083       .  S
C2777      N2782   1.433       .  S
C2778      C2779   1.421       .  A
C2779      C2780   1.415       .  A
C2779      H2783   1.077       .  S
C2780      N2784   1.438       .  S
N2782      H2785   1.045       .  S
N2782      H2786   1.046       .  S
N2784      H2787   1.046       .  S
N2784      H2788   1.046       .  S
C2793      C2798   1.407   1_455  A
C2794      C2795   1.407       .  A
C2794      N2799   1.433       .  S
C2795      H2800   1.084       .  S
C2796      C2801   1.509       .  S
C2796      C2797   1.419       .  A
C2797      C2798   1.421       .  A
C2797      N2802   1.437       .  S
C2798      H2803   1.084       .  S
N2799      H2819   1.046       .  S
N2799      H2820   1.046       .  S
C2801      C2804   1.397       .  A
N2802      H2817   1.046       .  S
N2802      H2818   1.046       .  S
C2804      C2805   1.408       .  A
C2804      H2809   1.084       .  S
C2805      C2806   1.435       .  A
C2805      N2810   1.433       .  S
C2807      C2808   1.420       .  A
C2807      H2811   1.079       .  S
C2808      N2812   1.437       .  S
N2810      H2813   1.046       .  S
N2810      H2814   1.046   1_655  S
N2812      H2815   1.045       .  S
N2812      H2816   1.045       .  S
C2821      C2826   1.414   1_455  A
C2822      C2823   1.420       .  A
C2822      N2827   1.436       .  S
C2823      H2828   1.083       .  S
C2824      C2829   1.508       .  S
C2824      C2825   1.408   1_455  A
C2825      C2826   1.409       .  A
C2825      N2830   1.438       .  S
C2826      H2831   1.083       .  S
N2827      H2847   1.045       .  S
N2827      H2848   1.046       .  S
C2829      C2836   1.400   1_455  A
N2830      H2845   1.046       .  S
N2830      H2846   1.046       .  S
C2832      C2833   1.419       .  A
C2832      H2837   1.084       .  S
C2833      N2838   1.430       .  S
C2834      C2835   1.434   1_455  A
C2835      C2836   1.409       .  A
C2835      H2839   1.079       .  S
C2836      N2840   1.439       .  S
N2838      H2841   1.046       .  S
N2838      H2842   1.046       .  S
N2840      H2843   1.045       .  S
N2840      H2844   1.045       .  S
C2849      C2850   1.419       .  A
C2849      C2854   1.411       .  A
C2850      C2851   1.393       .  A
C2850      N2855   1.433       .  S
C2851      C2852   1.399       .  A
C2851      H2856   1.084       .  S
C2852      C2857   1.467       .  S
C2852      C2853   1.403       .  A
C2853      C2854   1.400       .  A
C2853      N2858   1.438       .  S
C2854      H2859   1.083       .  S
N2855      H2875   1.046   1_554  S
N2855      H2876   1.044       .  S
C2857      C2860   1.399       .  A
C2857      C2864   1.410       .  A
N2858      H2873   1.046       .  S
N2858      H2874   1.046       .  S
C2860      C2861   1.397       .  A
C2860      H2865   1.084       .  S
C2861      C2862   1.407       .  A
C2861      N2866   1.433       .  S
C2862      C2863   1.400       .  A
C2863      C2864   1.400       .  A
C2863      H2867   1.084       .  S
C2864      N2868   1.438       .  S
N2866      H2869   1.045       .  S
N2866      H2870   1.046       .  S
N2868      H2871   1.046       .  S
N2868      H2872   1.045       .  S
C2877      C2878   1.409       .  A
C2877      C2882   1.405       .  A
C2878      C2879   1.399       .  A
C2878      N2883   1.433   1_554  S
C2879      C2880   1.402       .  A
C2879      H2884   1.084       .  S
C2880      C2885   1.475       .  S
C2880      C2881   1.408       .  A
C2881      C2882   1.403       .  A
C2881      N2886   1.438       .  S
C2882      H2887   1.084       .  S
N2883      H2903   1.046       .  S
N2883      H2904   1.046       .  S
C2885      C2888   1.405       .  A
C2885      C2892   1.409       .  A
N2886      H2901   1.046       .  S
N2886      H2902   1.045       .  S
C2888      C2889   1.406       .  A
C2888      H2893   1.084       .  S
C2889      C2890   1.407       .  A
C2889      N2894   1.437       .  S
C2890      C2891   1.400       .  A
C2891      C2892   1.397       .  A
C2891      H2895   1.084       .  S
C2892      N2896   1.438       .  S
N2894      H2897   1.046       .  S
N2894      H2898   1.045       .  S
N2896      H2899   1.046   1_554  S
N2896      H2900   1.046   1_554  S
C2905      C2906   1.411   1_554  A
C2905      C2910   1.405       .  A
C2906      C2907   1.400       .  A
C2906      N2911   1.433       .  S
C2907      C2908   1.400   1_556  A
C2907      H2912   1.084       .  S
C2908      C2913   1.465       .  S
C2908      C2909   1.403       .  A
C2909      C2910   1.396       .  A
C2909      N2914   1.433       .  S
C2910      H2915   1.083       .  S
N2911      H2931   1.046       .  S
N2911      H2932   1.046       .  S
C2913      C2916   1.398       .  A
C2913      C2920   1.411       .  A
N2914      H2929   1.045       .  S
N2914      H2930   1.046       .  S
C2916      C2917   1.396       .  A
C2916      H2921   1.084   1_554  S
C2917      C2918   1.406       .  A
C2917      N2922   1.432   1_554  S
C2918      C2919   1.400       .  A
C2919      C2920   1.402       .  A
C2919      H2923   1.084       .  S
C2920      N2924   1.438       .  S
N2922      H2925   1.046       .  S
N2922      H2926   1.045       .  S
N2924      H2927   1.046       .  S
N2924      H2928   1.044       .  S
C2933      C2934   1.412       .  A
C2933      C2938   1.401       .  A
C2934      C2935   1.399       .  A
C2934      N2939   1.433   1_554  S
C2935      C2936   1.403       .  A
C2935      H2940   1.084   1_554  S
C2936      C2941   1.479       .  S
C2936      C2937   1.409       .  A
C2937      C2938   1.403       .  A
C2937      N2942   1.432       .  S
C2938      H2943   1.084       .  S
N2939      H2959   1.046       .  S
N2939      H2960   1.045       .  S
C2941      C2944   1.398       .  A
C2941      C2948   1.409       .  A
N2942      H2957   1.045       .  S
N2942      H2958   1.046       .  S
C2944      C2945   1.401       .  A
C2944      H2949   1.084       .  S
C2945      C2946   1.417       .  A
C2945      N2950   1.432       .  S
C2946      C2947   1.413       .  A
C2947      C2948   1.409       .  A
C2947      H2951   1.083       .  S
C2948      N2952   1.439       .  S
N2950      H2953   1.046   1_554  S
N2950      H2954   1.046       .  S
N2952      H2955   1.046       .  S
N2952      H2956   1.044       .  S
C2961      C2962   1.420       .  A
C2962      C2963   1.409       .  A
C2962      N2967   1.439       .  S
C2963      H2968   1.084       .  S
C2964      C2969   1.494       .  S
C2964      C2965   1.415       .  A
C2965      C2966   1.418       .  A
C2965      N2970   1.437       .  S
C2966      H2971   1.084       .  S
N2967      H2987   1.046       .  S
N2967      H2988   1.046       .  S
C2969      C2976   1.410       .  A
N2970      H2985   1.046       .  S
N2970      H2986   1.046       .  S
C2972      C2973   1.406       .  A
C2972      H2977   1.084       .  S
C2973      C2974   1.436       .  A
C2973      N2978   1.432       .  S
C2975      C2976   1.418       .  A
C2975      H2979   1.077       .  S
C2976      N2980   1.437       .  S
N2978      H2981   1.046       .  S
N2978      H2982   1.046       .  S
N2980      H2983   1.046       .  S
N2980      H2984   1.045       .  S
C2989      C2994   1.405       .  A
C2990      C2991   1.406       .  A
C2990      N2995   1.439       .  S
C2991      H2996   1.084       .  S
C2992      C2997   1.499       .  S
C2992      C2993   1.416       .  A
C2993      C2994   1.417       .  A
C2993      N2998   1.437       .  S
C2994      H2999   1.083       .  S
N2995      H3015   1.045       .  S
N2995      H3016   1.046       .  S
C2997      C3004   1.419       .  A
N2998      H3013   1.046       .  S
N2998      H3014   1.046       .  S
C3000      C3001   1.405       .  A
C3000      H3005   1.084       .  S
C3001      N3006   1.431   1_545  S
C3002      C3003   1.416       .  A
C3003      C3004   1.414       .  A
C3003      H3007   1.077       .  S
C3004      N3008   1.439       .  S
N3006      H3009   1.046       .  S
N3006      H3010   1.046   1_565  S
N3008      H3011   1.046       .  S
N3008      H3012   1.043       .  S
C3017      C3018   1.413   1_655  A
C3018      C3019   1.409       .  A
C3018      N3023   1.433       .  S
C3019      H3024   1.084       .  S
C3020      C3025   1.499       .  S
C3020      C3021   1.419       .  A
C3021      C3022   1.418       .  A
C3021      N3026   1.437       .  S
C3022      H3027   1.084       .  S
N3023      H3043   1.045       .  S
N3023      H3044   1.046       .  S
C3025      C3028   1.393       .  A
N3026      H3041   1.046       .  S
N3026      H3042   1.045       .  S
C3028      C3029   1.401       .  A
C3028      H3033   1.084       .  S
C3029      N3034   1.433       .  S
C3030      C3031   1.415       .  A
C3031      C3032   1.422       .  A
C3031      H3035   1.079       .  S
C3032      N3036   1.437       .  S
N3034      H3037   1.046       .  S
N3034      H3038   1.046       .  S
N3036      H3039   1.046       .  S
N3036      H3040   1.045       .  S
C3045      C3046   1.427   1_655  A
C3046      C3047   1.423       .  A
C3046      N3051   1.432       .  S
C3047      C3048   1.408       .  A
C3047      H3052   1.083       .  S
C3048      C3053   1.503       .  S
C3049      C3050   1.404       .  A
C3049      N3054   1.433       .  S
C3050      H3055   1.078       .  S
N3051      H3071   1.045       .  S
N3051      H3072   1.046       .  S
C3053      C3060   1.408   1_455  A
N3054      H3069   1.045       .  S
N3054      H3070   1.046       .  S
C3056      C3057   1.422       .  A
C3056      H3061   1.083       .  S
C3057      N3062   1.436       .  S
C3058      C3059   1.414       .  A
C3059      C3060   1.410       .  A
C3059      H3063   1.083       .  S
C3060      N3064   1.438       .  S
N3062      H3065   1.046       .  S
N3062      H3066   1.045       .  S
N3064      H3067   1.046       .  S
N3064      H3068   1.046       .  S
C3073      C3074   1.412       .  A
C3073      C3078   1.405       .  A
C3074      C3075   1.410       .  A
C3074      N3079   1.433       .  S
C3075      C3076   1.404       .  A
C3075      H3080   1.084       .  S
C3076      C3081   1.499       .  S
C3076      C3077   1.414       .  A
C3077      C3078   1.416       .  A
C3077      N3082   1.437       .  S
C3078      H3083   1.084       .  S
N3079      H3099   1.045       .  S
N3079      H3100   1.045       .  S
C3081      C3084   1.394       .  A
C3081      C3088   1.414       .  A
N3082      H3097   1.045       .  S
N3082      H3098   1.046       .  S
C3084      C3085   1.402       .  A
C3084      H3089   1.084       .  S
C3085      C3086   1.432       .  A
C3085      N3090   1.433       .  S
C3086      C3087   1.415       .  A
C3087      C3088   1.421       .  A
C3087      H3091   1.079       .  S
C3088      N3092   1.437       .  S
N3090      H3093   1.046       .  S
N3090      H3094   1.046       .  S
N3092      H3095   1.045       .  S
N3092      H3096   1.046       .  S
C3101      C3102   1.424       .  A
C3101      C3106   1.426       .  A
C3102      C3103   1.416       .  A
C3102      N3107   1.432       .  S
C3103      C3104   1.408       .  A
C3103      H3108   1.083       .  S
C3104      C3109   1.508       .  S
C3104      C3105   1.406       .  A
C3105      C3106   1.407       .  A
C3105      N3110   1.439       .  S
C3106      H3111   1.077       .  S
N3107      H3127   1.045       .  S
N3107      H3128   1.046       .  S
C3109      C3112   1.414       .  A
C3109      C3116   1.408       .  A
N3110      H3125   1.045       .  S
N3110      H3126   1.046       .  S
C3112      C3113   1.421       .  A
C3112      H3117   1.083       .  S
C3113      C3114   1.415       .  A
C3113      N3118   1.436       .  S
C3114      C3115   1.417       .  A
C3115      C3116   1.407       .  A
C3115      H3119   1.082       .  S
C3116      N3120   1.439       .  S
N3118      H3121   1.046       .  S
N3118      H3122   1.046       .  S
N3120      H3123   1.046       .  S
N3120      H3124   1.046       .  S
C3129      C3130   1.433       .  A
C3129      C3134   1.417       .  A
C3130      C3131   1.401       .  A
C3130      N3135   1.432       .  S
C3131      C3132   1.391       .  A
C3131      H3136   1.084       .  S
C3132      C3137   1.496       .  S
C3132      C3133   1.413       .  A
C3133      C3134   1.418       .  A
C3133      N3138   1.437       .  S
C3134      H3139   1.077       .  S
N3135      H3155   1.046       .  S
N3135      H3156   1.046       .  S
C3137      C3140   1.398       .  A
C3137      C3144   1.417       .  A
N3138      H3153   1.046       .  S
N3138      H3154   1.046       .  S
C3140      C3141   1.405       .  A
C3140      H3145   1.084       .  S
C3141      C3142   1.420       .  A
C3141      N3146   1.439       .  S
C3142      C3143   1.406       .  A
C3143      C3144   1.419       .  A
C3143      H3147   1.083       .  S
C3144      N3148   1.437       .  S
N3146      H3149   1.045       .  S
N3146      H3150   1.046       .  S
N3148      H3151   1.045       .  S
N3148      H3152   1.046       .  S
C3157      C3158   1.426       .  A
C3157      C3162   1.408       .  A
C3158      C3159   1.412       .  A
C3158      N3163   1.439       .  S
C3159      C3160   1.401       .  A
C3159      H3164   1.084       .  S
C3160      C3165   1.513       .  S
C3160      C3161   1.420       .  A
C3161      C3162   1.423       .  A
C3161      N3166   1.437       .  S
C3162      H3167   1.083       .  S
N3163      H3183   1.046       .  S
N3163      H3184   1.046       .  S
C3165      C3168   1.398       .  A
C3165      C3172   1.415       .  A
N3166      H3181   1.045       .  S
N3166      H3182   1.046       .  S
C3168      C3169   1.410       .  A
C3168      H3173   1.084       .  S
C3169      C3170   1.433       .  A
C3169      N3174   1.432       .  S
C3170      C3171   1.418       .  A
C3171      C3172   1.420       .  A
C3171      H3175   1.076       .  S
C3172      N3176   1.437       .  S
N3174      H3177   1.046       .  S
N3174      H3178   1.046       .  S
N3176      H3179   1.046       .  S
N3176      H3180   1.045       .  S
C3185      C3186   1.411       .  A
C3185      C3190   1.399       .  A
C3186      C3187   1.395       .  A
C3186      N3191   1.433       .  S
C3187      C3188   1.401       .  A
C3187      H3192   1.084       .  S
C3188      C3193   1.474       .  S
C3188      C3189   1.412       .  A
C3189      C3190   1.403       .  A
C3189      N3194   1.438       .  S
C3190      H3195   1.084       .  S
N3191      H3211   1.045       .  S
N3191      H3212   1.045       .  S
C3193      C3196   1.397       .  A
C3193      C3200   1.407       .  A
N3194      H3209   1.046       .  S
N3194      H3210   1.046       .  S
C3196      C3197   1.401       .  A
C3196      H3201   1.084       .  S
C3197      C3198   1.422       .  A
C3197      N3202   1.439       .  S
C3198      C3199   1.407       .  A
C3199      C3200   1.403       .  A
C3199      H3203   1.083       .  S
C3200      N3204   1.438       .  S
N3202      H3205   1.046       .  S
N3202      H3206   1.045       .  S
N3204      H3207   1.046       .  S
N3204      H3208   1.046       .  S
C3213      C3214   1.417       .  A
C3213      C3218   1.402       .  A
C3214      C3215   1.396       .  A
C3214      N3219   1.439       .  S
C3215      C3216   1.397       .  A
C3215      H3220   1.084       .  S
C3216      C3221   1.469       .  S
C3216      C3217   1.408       .  A
C3217      C3218   1.404       .  A
C3217      N3222   1.438       .  S
C3218      H3223   1.084       .  S
N3219      H3239   1.043       .  S
N3219      H3240   1.046       .  S
C3221      C3224   1.395       .  A
C3221      C3228   1.407       .  A
N3222      H3237   1.046       .  S
N3222      H3238   1.045       .  S
C3224      C3225   1.399       .  A
C3224      H3229   1.084       .  S
C3225      C3226   1.419       .  A
C3225      N3230   1.434       .  S
C3226      C3227   1.407       .  A
C3227      C3228   1.404       .  A
C3227      H3231   1.083       .  S
C3228      N3232   1.438       .  S
N3230      H3233   1.046       .  S
N3230      H3234   1.046       .  S
N3232      H3235   1.046       .  S
N3232      H3236   1.045       .  S
C3241      C3242   1.412       .  A
C3241      C3246   1.400       .  A
C3242      C3243   1.394       .  A
C3242      N3247   1.433       .  S
C3243      C3244   1.399       .  A
C3243      H3248   1.084       .  S
C3244      C3249   1.472       .  S
C3244      C3245   1.410       .  A
C3245      C3246   1.405       .  A
C3245      N3250   1.437       .  S
C3246      H3251   1.084       .  S
N3247      H3267   1.045       .  S
N3247      H3268   1.045       .  S
C3249      C3252   1.396       .  A
C3249      C3256   1.405       .  A
N3250      H3265   1.046       .  S
N3250      H3266   1.046       .  S
C3252      C3253   1.404       .  A
C3252      H3257   1.084       .  S
C3253      C3254   1.423       .  A
C3253      N3258   1.438       .  S
C3254      C3255   1.409       .  A
C3255      C3256   1.403       .  A
C3255      H3259   1.083       .  S
C3256      N3260   1.438       .  S
N3258      H3261   1.046       .  S
N3258      H3262   1.045       .  S
N3260      H3263   1.046       .  S
N3260      H3264   1.045       .  S
C3269      C3270   1.413       .  A
C3269      C3274   1.403       .  A
C3270      C3271   1.398       .  A
C3270      N3275   1.438       .  S
C3271      C3272   1.400       .  A
C3271      H3276   1.084       .  S
C3272      C3277   1.463       .  S
C3272      C3273   1.406       .  A
C3273      C3274   1.392       .  A
C3273      N3278   1.433       .  S
C3274      H3279   1.084       .  S
N3275      H3295   1.043       .  S
N3275      H3296   1.045       .  S
C3277      C3280   1.396       .  A
C3277      C3284   1.403       .  A
N3278      H3293   1.045       .  S
N3278      H3294   1.046       .  S
C3280      C3281   1.397       .  A
C3280      H3285   1.084       .  S
C3281      C3282   1.418       .  A
C3281      N3286   1.433       .  S
C3282      C3283   1.409       .  A
C3283      C3284   1.399       .  A
C3283      H3287   1.083       .  S
C3284      N3288   1.438       .  S
N3286      H3289   1.046       .  S
N3286      H3290   1.046       .  S
N3288      H3291   1.046       .  S
N3288      H3292   1.046       .  S
C3297      C3298   1.413       .  A
C3297      C3302   1.406       .  A
C3298      C3299   1.409       .  A
C3298      N3303   1.437       .  S
C3299      C3300   1.405       .  A
C3299      H3304   1.084       .  S
C3300      C3305   1.506       .  S
C3300      C3301   1.415       .  A
C3301      C3302   1.417       .  A
C3301      N3306   1.431       .  S
C3302      H3307   1.084       .  S
N3303      H3323   1.046       .  S
N3303      H3324   1.045       .  S
C3305      C3308   1.394       .  A
C3305      C3312   1.420       .  A
N3306      H3321   1.046       .  S
N3306      H3322   1.046       .  S
C3308      C3309   1.404       .  A
C3308      H3313   1.085       .  S
C3309      C3310   1.443       .  A
C3309      N3314   1.433       .  S
C3310      C3311   1.418       .  A
C3311      C3312   1.418       .  A
C3311      H3315   1.083       .  S
C3312      N3316   1.438       .  S
N3314      H3317   1.046       .  S
N3314      H3318   1.046       .  S
N3316      H3319   1.043       .  S
N3316      H3320   1.046       .  S
C3325      C3326   1.413       .  A
C3325      C3330   1.403       .  A
C3326      C3327   1.414       .  A
C3326      N3331   1.437       .  S
C3327      C3328   1.405       .  A
C3327      H3332   1.084       .  S
C3328      C3333   1.507       .  S
C3328      C3329   1.418       .  A
C3329      C3330   1.416       .  A
C3329      N3334   1.437       .  S
C3330      H3335   1.084       .  S
N3331      H3351   1.046       .  S
N3331      H3352   1.046       .  S
C3333      C3336   1.395       .  A
C3333      C3340   1.417       .  A
N3334      H3349   1.046       .  S
N3334      H3350   1.045       .  S
C3336      C3337   1.404       .  A
C3336      H3341   1.084       .  S
C3337      C3338   1.432       .  A
C3337      N3342   1.433       .  S
C3338      C3339   1.415       .  A
C3339      C3340   1.424       .  A
C3339      H3343   1.079       .  S
C3340      N3344   1.437       .  S
N3342      H3345   1.046       .  S
N3342      H3346   1.046       .  S
N3344      H3347   1.045       .  S
N3344      H3348   1.045       .  S
C3353      C3354   1.412       .  A
C3353      C3358   1.404       .  A
C3354      C3355   1.420       .  A
C3354      N3359   1.437       .  S
C3355      C3356   1.413       .  A
C3355      H3360   1.083       .  S
C3356      C3361   1.513       .  S
C3356      C3357   1.418       .  A
C3357      C3358   1.407       .  A
C3357      N3362   1.439       .  S
C3358      H3363   1.085       .  S
N3359      H3379   1.046       .  S
N3359      H3380   1.046       .  S
C3361      C3364   1.400       .  A
C3361      C3368   1.416       .  A
N3362      H3377   1.046       .  S
N3362      H3378   1.045       .  S
C3364      C3365   1.405       .  A
C3364      H3369   1.083       .  S
C3365      C3366   1.431       .  A
C3365      N3370   1.432       .  S
C3366      C3367   1.419       .  A
C3367      C3368   1.421       .  A
C3367      H3371   1.083       .  S
C3368      N3372   1.437       .  S
N3370      H3373   1.046       .  S
N3370      H3374   1.046       .  S
N3372      H3375   1.046       .  S
N3372      H3376   1.046       .  S
C3381      C3382   1.413       .  A
C3381      C3386   1.404       .  A
C3382      C3383   1.404       .  A
C3382      N3387   1.433       .  S
C3383      C3384   1.403       .  A
C3383      H3388   1.084       .  S
C3384      C3389   1.502       .  S
C3384      C3385   1.418       .  A
C3385      C3386   1.417       .  A
C3385      N3390   1.437       .  S
C3386      H3391   1.083       .  S
N3387      H3407   1.045       .  S
N3387      H3408   1.046       .  S
C3389      C3392   1.406       .  A
C3389      C3396   1.409       .  A
N3390      H3405   1.046       .  S
N3390      H3406   1.046       .  S
C3392      C3393   1.414       .  A
C3392      H3397   1.084       .  S
C3393      C3394   1.424       .  A
C3393      N3398   1.431       .  S
C3394      C3395   1.418       .  A
C3395      C3396   1.407       .  A
C3395      H3399   1.079       .  S
C3396      N3400   1.438       .  S
N3398      H3401   1.046       .  S
N3398      H3402   1.045       .  S
N3400      H3403   1.045       .  S
N3400      H3404   1.046       .  S
