geometry optimzed in LAMMPS
_audit_creation_date              2020-12-01 
_audit_creation_method            'lammps2cif' 
_symmetry_space_group_name_H-M    'P1' 
_symmetry_Int_Tables_number       1 
_symmetry_cell_setting            triclinic 
loop_ 
_symmetry_equiv_pos_as_xyz 
  x,y,z 
_cell_length_a                    45.01673385 
_cell_length_b                    45.03381027635605 
_cell_length_c                    87.34314538348424 
_cell_angle_alpha                 89.94263333526573 
_cell_angle_beta                  90.04741006356815 
_cell_angle_gamma                 120.08129968037467 
loop_ 
_atom_site_label 
_atom_site_type_symbol 
_atom_site_fract_x 
_atom_site_fract_y 
_atom_site_fract_z 
_atom_site_charge 
N1          N  0.43466142  0.42742038  0.90207201    -0.25200
N2          N  0.45104264  0.44031948  0.88902548    -0.33000
C3          C  0.43326575  0.41872020  0.87755220     0.03200
C4          C  0.40446475  0.39108403  0.88373767     0.09200
C5          C  0.40603103  0.39728336  0.89926152    -0.03900
H6          H  0.44088429  0.42277806  0.86564055     0.09900
H7          H  0.38788877  0.38106617  0.90789479     0.11100
Cu8        Cu  0.99705490  0.48640139  0.88746729     0.44200
Cu9        Cu  0.45221926  0.45105034  0.92311412     0.42000
Cu10       Cu  0.03245873  0.03188728  0.92290476     0.43900
N11         N  0.04299349  0.03259473  0.88882607    -0.32600
N12         N  0.05590541  0.04922385  0.90181556    -0.26800
C13         C  0.08596450  0.07787359  0.89892003    -0.02900
C14         C  0.09210087  0.07920021  0.88339878     0.09300
C15         C  0.06450936  0.05023259  0.87729992     0.03100
H16         H  0.10219404  0.09617284  0.90749819     0.10700
H17         H  0.06044586  0.04239147  0.86541801     0.09800
N18         N  0.00468882  0.00884163  0.94258134    -0.34000
N19         N  0.47539054  0.47930040  0.94266700    -0.26200
C20         C  0.46432216  0.47111883  0.95719376    -0.01400
C21         C  0.48779778  0.99677100  0.96659593     0.07200
C22         C  0.01306072  0.02026224  0.95704736     0.05300
H23         H  0.44114529  0.44805625  0.96063227     0.10400
H24         H  0.03600603  0.04369607  0.96034798     0.09200
N25         N  0.08524755  0.01993801  0.77433531    -0.25200
N26         N  0.06854517  0.00733878  0.78733998    -0.33000
C27         C  0.08607924  0.02916306  0.79878549     0.03200
C28         C  0.11505983  0.05663612  0.79261963     0.09200
C29         C  0.11384626  0.05010250  0.77713987    -0.03900
H30         H  0.07817892  0.02536902  0.81066096     0.09900
H31         H  0.13220426  0.06611619  0.76852992     0.11100
Cu32       Cu  0.02242089  0.46135626  0.78881063     0.44200
Cu33       Cu  0.06804006  0.99588436  0.75335508     0.42000
Cu34       Cu  0.48737280  0.41554425  0.75330036     0.43900
N35         N  0.47639114  0.41527738  0.78733909    -0.32600
N36         N  0.46363383  0.39855694  0.77435245    -0.26800
C37         C  0.43348266  0.36998986  0.77721461    -0.02900
C38         C  0.42712423  0.36881909  0.79270769     0.09300
C39         C  0.45467634  0.39778122  0.79882585     0.03100
H40         H  0.41736460  0.35162209  0.76863437     0.10700
H41         H  0.45860308  0.40569468  0.81069828     0.09800
N42         N  0.01559467  0.43844239  0.73371522    -0.34000
N43         N  0.04508305  0.46779292  0.73374338    -0.26200
C44         C  0.05641408  0.47607362  0.71925964    -0.01400
C45         C  0.03292021  0.45069212  0.70976218     0.07200
C46         C  0.00735566  0.42724490  0.71921086     0.05300
H47         H  0.07973826  0.99908341  0.71590842     0.10400
H48         H  0.48426637  0.40405173  0.71581531     0.09200
N49         N  0.13384679  0.02458973  0.44076240    -0.25200
N50         N  0.11766056  0.02119218  0.45385312    -0.33000
C51         C  0.13559462  0.01746751  0.46528550     0.03200
C52         C  0.16428084  0.01859996  0.45902914     0.09200
C53         C  0.16249343  0.02311812  0.44350597    -0.03900
H54         H  0.12817790  0.01403159  0.47722197     0.09900
H55         H  0.18051824  0.02502934  0.43482935     0.11100
Cu56       Cu  0.07173481  0.02132496  0.45557707     0.44200
Cu57       Cu  0.11614167  0.03061210  0.41974104     0.42000
Cu58       Cu  0.03618662  0.03150540  0.42025968     0.43900
N59         N  0.02590937  0.02177568  0.45434760    -0.32600
N60         N  0.01295726  0.02554133  0.44137704    -0.26800
C61         C  0.48302484  0.02429216  0.44431217    -0.02900
C62         C  0.47699764  0.01953877  0.45984324     0.09300
C63         C  0.00453647  0.01802801  0.46590746     0.03100
H64         H  0.46680423  0.02643548  0.43575323     0.10700
H65         H  0.00865803  0.01425189  0.47778642     0.09800
N66         N  0.06349573  0.03600550  0.40048009    -0.34000
N67         N  0.09270490  0.03565629  0.40026912    -0.26200
C68         C  0.10344651  0.03842096  0.38569423    -0.01400
C69         C  0.07984118  0.04062733  0.37639758     0.07200
C70         C  0.05485078  0.03899934  0.38605451     0.05300
H71         H  0.12648779  0.03844155  0.38215378     0.10400
H72         H  0.03190601  0.03955729  0.38285587     0.09200
N73         N  0.48474749  0.46937208  0.56865091    -0.28200
N74         N  0.50137188  0.47346921  0.55562922    -0.33000
C75         C  0.48374781  0.47766603  0.54419234     0.03200
C76         C  0.45479784  0.47610295  0.55038234     0.09200
C77         C  0.45611985  0.47084660  0.56586545    -0.03900
H78         H  0.49155787  0.48173080  0.53230515     0.09900
H79         H  0.43780988  0.46847498  0.57449069     0.11100
Cu80       Cu  0.04748412  0.47365770  0.55409981     0.44200
Cu81       Cu  0.50202764  0.46262864  0.58963910     0.42000
Cu82       Cu  0.08256804  0.46284944  0.58956220     0.43900
N83         N  0.09342204  0.47345617  0.55550887    -0.32600
N84         N  0.10617634  0.46944281  0.56849033    -0.26800
C85         C  0.13621526  0.47086894  0.56560841    -0.02900
C86         C  0.14251867  0.47601122  0.55010601     0.09300
C87         C  0.11503522  0.47755573  0.54400429     0.03100
H88         H  0.15230105  0.46854624  0.57418250     0.10700
H89         H  0.11108619  0.48154537  0.53213022     0.09800
N90         N  0.05459769  0.45770939  0.60920124    -0.34000
N91         N  0.02515990  0.45761260  0.60922040    -0.26200
C92         C  0.01401246  0.45469374  0.62372639    -0.01400
C93         C  0.03757161  0.45284890  0.63319021     0.07200
C94         C  0.06298552  0.45485413  0.62369804     0.05300
H95         H  0.49076967  0.45444153  0.62711471     0.10400
H96         H  0.08607546  0.45474775  0.62705777     0.09200
N97         N  0.00305902  0.44863568  0.10796721    -0.25200
N98         N  0.00663000  0.46502515  0.12100589    -0.33000
C99         C  0.01034148  0.44719296  0.13249281     0.03200
C100        C  0.00901018  0.41834935  0.12631431     0.09200
C101        C  0.00439805  0.41995867  0.11078811    -0.03900
H102        H  0.01396995  0.45481322  0.14440299     0.09900
H103        H  0.00241608  0.40183043  0.10215595     0.11100
Cu104      Cu  0.00690265  0.01117351  0.12244548     0.44200
Cu105      Cu  0.99729455  0.46636402  0.08691090     0.42000
Cu106      Cu  0.99807808  0.04711223  0.08675063     0.43900
N107        N  0.00707043  0.05726597  0.12090629    -0.32600
N108        N  0.00381436  0.07032877  0.10785987    -0.26800
C109        C  0.00530051  0.10039679  0.11070276    -0.02900
C110        C  0.00968527  0.10639239  0.12624427     0.09300
C111        C  0.01072422  0.07870381  0.13241158     0.03100
H112        H  0.00351682  0.11670235  0.10207806     0.10700
H113        H  0.01406546  0.07449225  0.14433340     0.09800
N114        N  0.49355426  0.01929984  0.06713749    -0.34000
N115        N  0.49324120  0.48976690  0.06721329    -0.26200
C116        C  0.49070685  0.47865463  0.05272385    -0.01400
C117        C  0.48934254  0.50233563  0.04316730     0.07200
C118        C  0.49122651  0.02778735  0.05259094     0.05300
H119        H  0.49031616  0.45531089  0.04941445     0.10400
H120        H  0.49131678  0.05092706  0.04915645     0.09200
N121        N  0.05799779  0.09725658  0.23550853    -0.25200
N122        N  0.05423271  0.08086437  0.22244867    -0.33000
C123        C  0.05026230  0.09864656  0.21101938     0.03200
C124        C  0.05162214  0.12745320  0.21724709     0.09200
C125        C  0.05652814  0.12588891  0.23274920    -0.03900
H126        H  0.04651163  0.09105000  0.19910599     0.09900
H127        H  0.05870321  0.14405693  0.24140209     0.11100
Cu128      Cu  0.05424822  0.03488765  0.22078721     0.44200
Cu129      Cu  0.06449814  0.07982550  0.25651177     0.42000
Cu130      Cu  0.06524399  0.49983893  0.25612813     0.43900
N131        N  0.05470907  0.48909028  0.22208647    -0.32600
N132        N  0.05877706  0.47633765  0.23505408    -0.26800
C133        C  0.05747331  0.44638060  0.23215458    -0.02900
C134        C  0.05236425  0.44012712  0.21665185     0.09300
C135        C  0.05070338  0.46755600  0.21056522     0.03100
H136        H  0.05982816  0.43030069  0.24071964     0.10700
H137        H  0.04666195  0.47150036  0.19869752     0.09800
N138        N  0.07026021  0.02749448  0.27584282    -0.34000
N139        N  0.06996711  0.05672190  0.27600444    -0.26200
C140        C  0.07304700  0.06770104  0.29055123    -0.01400
C141        C  0.07540225  0.04423158  0.29988046     0.07200
C142        C  0.07353231  0.01907408  0.29027208     0.05300
H143        H  0.07314476  0.09079207  0.29405346     0.10400
H144        H  0.07407994  0.49615142  0.29350907     0.09200
C145        C  0.02645494  0.29781799  0.16372107     0.04400
C146        C  0.03429658  0.30181785  0.17947186     0.04400
C147        C  0.03812206  0.27674699  0.18729870    -0.16200
C148        C  0.03425387  0.24773997  0.17957988     0.04400
C149        C  0.02648930  0.24377727  0.16381906     0.04400
C150        C  0.02261205  0.26882654  0.15599852    -0.16200
H151        H  0.01662299  0.26576750  0.14386791     0.06400
H152        H  0.04412851  0.27982096  0.19942784     0.06400
C153        C  0.23047069  0.19905196  0.84589941     0.04400
C154        C  0.23469997  0.19499688  0.83019988     0.04400
C155        C  0.26385602  0.22005883  0.82249701    -0.16200
C156        C  0.28883669  0.24911197  0.83028330     0.04400
C157        C  0.28462704  0.25315363  0.84598659     0.04400
C158        C  0.25546289  0.22809554  0.85368824    -0.16200
H159        H  0.25221304  0.23119784  0.86577748     0.06400
H160        H  0.26710536  0.21695467  0.81040788     0.06400
C161        C  0.28054448  0.49388131  0.51263391     0.04400
C162        C  0.28465850  0.00170901  0.49687876     0.04400
C163        C  0.31378400  0.00568277  0.48921684    -0.16200
C164        C  0.33883079  0.00189784  0.49709341     0.04400
C165        C  0.33469112  0.49401738  0.51284115     0.04400
C166        C  0.30558384  0.49007443  0.52050713    -0.16200
H167        H  0.30241294  0.48403340  0.53263333     0.06400
H168        H  0.31695500  0.01171285  0.47708949     0.06400
C169        C  0.03829961  0.22233507  0.18799452    -0.16400
C170        C  0.04150626  0.20079248  0.19480409     0.07700
C171        C  0.04513135  0.17532380  0.20262848     0.09500
C172        C  0.04814594  0.15349534  0.20927684    -0.17200
C173        C  0.03849952  0.33144493  0.18775414    -0.16400
C174        C  0.04186012  0.35640975  0.19439707     0.07700
C175        C  0.04565238  0.38573658  0.20203351     0.09500
C176        C  0.04878394  0.41068251  0.20860543    -0.17200
C177        C  0.01303138  0.13574205  0.13429091    -0.16400
C178        C  0.01592943  0.16049780  0.14095320     0.07700
C179        C  0.01941528  0.18953822  0.14874525     0.09500
C180        C  0.02252056  0.21428410  0.15549790    -0.17200
C181        C  0.02233402  0.32320579  0.15533000    -0.16400
C182        C  0.01908221  0.34481761  0.14860791     0.07700
C183        C  0.01543984  0.37040733  0.14090490     0.09500
C184        C  0.01243842  0.39230952  0.13431674    -0.17200
C185        C  0.42884773  0.47974263  0.54241273    -0.16400
C186        C  0.40703369  0.48286959  0.53581035     0.07700
C187        C  0.38155270  0.48660794  0.52805859     0.09500
C188        C  0.36002029  0.48990072  0.52128486    -0.17200
C189        C  0.17197430  0.47960147  0.54204561    -0.16400
C190        C  0.19683288  0.48270527  0.53538598     0.07700
C191        C  0.22601237  0.48643231  0.52761300     0.09500
C192        C  0.25088719  0.48972824  0.52089347    -0.17200
C193        C  0.08038189  0.04279952  0.35998457    -0.16400
C194        C  0.08017917  0.04407886  0.34620444     0.07700
C195        C  0.07921404  0.04490362  0.33006611     0.09500
C196        C  0.07779459  0.04497351  0.31628784    -0.17200
C197        C  0.44764591  0.01611781  0.46793578    -0.16400
C198        C  0.42277002  0.01310575  0.47454450     0.07700
C199        C  0.39349572  0.00942148  0.48221114     0.09500
C200        C  0.36853274  0.00610966  0.48885407    -0.17200
C201        C  0.25927497  0.00568236  0.48840730    -0.16400
C202        C  0.23774265  0.00881792  0.48154788     0.07700
C203        C  0.21226600  0.01234267  0.47367412     0.09500
C204        C  0.19040273  0.01525732  0.46700034    -0.17200
C205        C  0.03403206  0.44978724  0.69334445    -0.16400
C206        C  0.03489650  0.44958934  0.67955587     0.07700
C207        C  0.03585301  0.45001866  0.66340401     0.09500
C208        C  0.03664054  0.45097188  0.64961302    -0.17200
C209        C  0.39757232  0.34300813  0.80075289    -0.16400
C210        C  0.37265825  0.32132388  0.80742628     0.07700
C211        C  0.34343754  0.29597539  0.81523150     0.09500
C212        C  0.31853002  0.27449274  0.82198529    -0.17200
C213        C  0.14092088  0.08626561  0.80061193    -0.16400
C214        C  0.16262809  0.11122317  0.80725529     0.07700
C215        C  0.18797357  0.14047208  0.81505257     0.09500
C216        C  0.20941310  0.16536860  0.82182961    -0.17200
C217        C  0.48688893  0.99809937  0.98301002    -0.16400
C218        C  0.48664216  0.99917909  0.99679472     0.07700
C219        C  0.48695969  0.50038710  0.01294465     0.09500
C220        C  0.48775488  0.50133692  0.02673677    -0.17200
C221        C  0.37849140  0.36158403  0.87571559    -0.16400
C222        C  0.35674715  0.33673190  0.86902668     0.07700
C223        C  0.33139134  0.30758692  0.86117392     0.09500
C224        C  0.30994189  0.28275184  0.85436547    -0.17200
C225        C  0.20073120  0.17369602  0.85418458    -0.16400
C226        C  0.17576432  0.15220522  0.86090518     0.07700
C227        C  0.14648822  0.12681409  0.86866920     0.09500
C228        C  0.12157478  0.10507828  0.87532801    -0.17200
N229        N  0.43466145  0.92742035  0.90207200    -0.25200
N230        N  0.45104273  0.94031957  0.88902548    -0.33000
C231        C  0.43326589  0.91872030  0.87755221     0.03200
C232        C  0.40446478  0.89108408  0.88373765     0.09200
C233        C  0.40603102  0.89728336  0.89926149    -0.03900
H234        H  0.44088448  0.92277838  0.86564052     0.09900
H235        H  0.38788871  0.88106615  0.90789477     0.11100
Cu236      Cu  0.99705480  0.98640148  0.88746729     0.44200
Cu237      Cu  0.45221923  0.95105022  0.92311414     0.42000
Cu238      Cu  0.03245878  0.53188734  0.92290477     0.43900
N239        N  0.04299349  0.53259472  0.88882607    -0.32600
N240        N  0.05590547  0.54922387  0.90181555    -0.26800
C241        C  0.08596460  0.57787366  0.89892004    -0.02900
C242        C  0.09210093  0.57920021  0.88339878     0.09300
C243        C  0.06450935  0.55023259  0.87729991     0.03100
H244        H  0.10219418  0.59617276  0.90749815     0.10700
H245        H  0.06044585  0.54239141  0.86541800     0.09800
N246        N  0.00468882  0.50884168  0.94258134    -0.34000
N247        N  0.47539057  0.97930032  0.94266701    -0.26200
C248        C  0.46432212  0.97111873  0.95719377    -0.01400
C249        C  0.48779770  0.49677104  0.96659593     0.07200
C250        C  0.01306073  0.52026231  0.95704737     0.05300
H251        H  0.44114528  0.94805642  0.96063223     0.10400
H252        H  0.03600605  0.54369609  0.96034798     0.09200
N253        N  0.08524753  0.51993793  0.77433533    -0.25200
N254        N  0.06854512  0.50733871  0.78733999    -0.33000
C255        C  0.08607925  0.52916311  0.79878549     0.03200
C256        C  0.11505990  0.55663611  0.79261959     0.09200
C257        C  0.11384631  0.55010245  0.77713986    -0.03900
H258        H  0.07817925  0.52536932  0.81066088     0.09900
H259        H  0.13220435  0.56611605  0.76852991     0.11100
Cu260      Cu  0.02242096  0.96135635  0.78881062     0.44200
Cu261      Cu  0.06804003  0.49588432  0.75335509     0.42000
Cu262      Cu  0.48737274  0.91554407  0.75330036     0.43900
N263        N  0.47639121  0.91527744  0.78733909    -0.32600
N264        N  0.46363385  0.89855690  0.77435246    -0.26800
C265        C  0.43348265  0.86998983  0.77721462    -0.02900
C266        C  0.42712429  0.86881916  0.79270771     0.09300
C267        C  0.45467650  0.89778128  0.79882585     0.03100
H268        H  0.41736456  0.85162212  0.76863439     0.10700
H269        H  0.45860323  0.90569502  0.81069837     0.09800
N270        N  0.01559467  0.93844227  0.73371520    -0.34000
N271        N  0.04508305  0.96779286  0.73374339    -0.26200
C272        C  0.05641398  0.97607350  0.71925967    -0.01400
C273        C  0.03292013  0.95069202  0.70976217     0.07200
C274        C  0.00735570  0.92724488  0.71921084     0.05300
H275        H  0.07973839  0.49908340  0.71590839     0.10400
H276        H  0.48426645  0.90405158  0.71581526     0.09200
N277        N  0.13384663  0.52458967  0.44076244    -0.25200
N278        N  0.11766047  0.52119222  0.45385315    -0.33000
C279        C  0.13559454  0.51746747  0.46528552     0.03200
C280        C  0.16428082  0.51860003  0.45902915     0.09200
C281        C  0.16249344  0.52311819  0.44350595    -0.03900
H282        H  0.12817791  0.51403165  0.47722198     0.09900
H283        H  0.18051799  0.52502976  0.43482952     0.11100
Cu284      Cu  0.07173475  0.52132502  0.45557707     0.44200
Cu285      Cu  0.11614171  0.53061217  0.41974104     0.42000
Cu286      Cu  0.03618668  0.53150547  0.42025968     0.43900
N287        N  0.02590936  0.52177576  0.45434760    -0.32600
N288        N  0.01295727  0.52554141  0.44137703    -0.26800
C289        C  0.48302490  0.52429222  0.44431219    -0.02900
C290        C  0.47699766  0.51953885  0.45984323     0.09300
C291        C  0.00453649  0.51802808  0.46590746     0.03100
H292        H  0.46680386  0.52643560  0.43575307     0.10700
H293        H  0.00865806  0.51425196  0.47778642     0.09800
N294        N  0.06349578  0.53600557  0.40048009    -0.34000
N295        N  0.09270496  0.53565637  0.40026912    -0.26200
C296        C  0.10344657  0.53842104  0.38569423    -0.01400
C297        C  0.07984124  0.54062741  0.37639758     0.07200
C298        C  0.05485083  0.53899939  0.38605451     0.05300
H299        H  0.12648785  0.53844164  0.38215378     0.10400
H300        H  0.03190619  0.53955762  0.38285587     0.09200
N301        N  0.48474750  0.96937207  0.56865091    -0.28200
N302        N  0.50137188  0.97346917  0.55562922    -0.33000
C303        C  0.48374777  0.97766591  0.54419233     0.03200
C304        C  0.45479781  0.97610287  0.55038235     0.09200
C305        C  0.45611992  0.97084669  0.56586546    -0.03900
H306        H  0.49155755  0.98173016  0.53230516     0.09900
H307        H  0.43781002  0.96847520  0.57449071     0.11100
Cu308      Cu  0.04748406  0.97365774  0.55409981     0.44200
Cu309      Cu  0.50202768  0.96262870  0.58963910     0.42000
Cu310      Cu  0.08256794  0.96284951  0.58956218     0.43900
N311        N  0.09342200  0.97345622  0.55550886    -0.32600
N312        N  0.10617625  0.96944278  0.56849032    -0.26800
C313        C  0.13621525  0.97086902  0.56560843    -0.02900
C314        C  0.14251868  0.97601130  0.55010602     0.09300
C315        C  0.11503517  0.97755569  0.54400429     0.03100
H316        H  0.15230109  0.96854643  0.57418253     0.10700
H317        H  0.11108619  0.98154542  0.53213022     0.09800
N318        N  0.05459762  0.95770928  0.60920122    -0.34000
N319        N  0.02515993  0.95761256  0.60922036    -0.26200
C320        C  0.01401243  0.95469365  0.62372638    -0.01400
C321        C  0.03757168  0.95284879  0.63319021     0.07200
C322        C  0.06298558  0.95485419  0.62369803     0.05300
H323        H  0.49076960  0.95444133  0.62711461     0.10400
H324        H  0.08607537  0.95474748  0.62705773     0.09200
N325        N  0.00305908  0.94863571  0.10796720    -0.25200
N326        N  0.00662994  0.96502511  0.12100588    -0.33000
C327        C  0.01034150  0.94719292  0.13249281     0.03200
C328        C  0.00901013  0.91834926  0.12631430     0.09200
C329        C  0.00439805  0.91995862  0.11078809    -0.03900
H330        H  0.01396962  0.95481292  0.14440291     0.09900
H331        H  0.00241613  0.90183046  0.10215597     0.11100
Cu332      Cu  0.00690271  0.51117356  0.12244549     0.44200
Cu333      Cu  0.99729461  0.96636409  0.08691090     0.42000
Cu334      Cu  0.99807803  0.54711209  0.08675064     0.43900
N335        N  0.00707050  0.55726599  0.12090629    -0.32600
N336        N  0.00381435  0.57032873  0.10785987    -0.26800
C337        C  0.00530052  0.60039682  0.11070272    -0.02900
C338        C  0.00968528  0.60639240  0.12624423     0.09300
C339        C  0.01072429  0.57870389  0.13241157     0.03100
H340        H  0.00351667  0.61670226  0.10207809     0.10700
H341        H  0.01406570  0.57449262  0.14433335     0.09800
N342        N  0.49355424  0.51929973  0.06713748    -0.34000
N343        N  0.49324123  0.98976704  0.06721331    -0.26200
C344        C  0.49070691  0.97865470  0.05272385    -0.01400
C345        C  0.48934252  0.00233571  0.04316731     0.07200
C346        C  0.49122654  0.52778727  0.05259093     0.05300
H347        H  0.49031641  0.95531150  0.04941448     0.10400
H348        H  0.49131694  0.55092710  0.04915643     0.09200
N349        N  0.05799773  0.59725657  0.23550850    -0.25200
N350        N  0.05423275  0.58086442  0.22244863    -0.33000
C351        C  0.05026230  0.59864658  0.21101933     0.03200
C352        C  0.05162216  0.62745320  0.21724709     0.09200
C353        C  0.05652817  0.62588898  0.23274921    -0.03900
H354        H  0.04651174  0.59105008  0.19910595     0.09900
H355        H  0.05870316  0.64405685  0.24140205     0.11100
Cu356      Cu  0.05424827  0.53488769  0.22078720     0.44200
Cu357      Cu  0.06449821  0.57982551  0.25651172     0.42000
Cu358      Cu  0.06524402  0.99983896  0.25612814     0.43900
N359        N  0.05470893  0.98909019  0.22208645    -0.32600
N360        N  0.05877697  0.97633756  0.23505409    -0.26800
C361        C  0.05747308  0.94638051  0.23215456    -0.02900
C362        C  0.05236423  0.94012708  0.21665183     0.09300
C363        C  0.05070332  0.96755593  0.21056523     0.03100
H364        H  0.05982837  0.93030048  0.24071973     0.10700
H365        H  0.04666241  0.97150055  0.19869727     0.09800
N366        N  0.07026023  0.52749454  0.27584278    -0.34000
N367        N  0.06996717  0.55672196  0.27600441    -0.26200
C368        C  0.07304702  0.56770108  0.29055121    -0.01400
C369        C  0.07540230  0.54423168  0.29988044     0.07200
C370        C  0.07353231  0.51907413  0.29027206     0.05300
H371        H  0.07314485  0.59079222  0.29405347     0.10400
H372        H  0.07407980  0.99615098  0.29350913     0.09200
C373        C  0.02645490  0.79781796  0.16372107     0.04400
C374        C  0.03429659  0.80181782  0.17947185     0.04400
C375        C  0.03812209  0.77674696  0.18729870    -0.16200
C376        C  0.03425384  0.74773993  0.17957987     0.04400
C377        C  0.02648933  0.74377726  0.16381905     0.04400
C378        C  0.02261202  0.76882652  0.15599852    -0.16200
H379        H  0.01662284  0.76576747  0.14386791     0.06400
H380        H  0.04412829  0.77982080  0.19942782     0.06400
C381        C  0.23047065  0.69905203  0.84589946     0.04400
C382        C  0.23469997  0.69499686  0.83019994     0.04400
C383        C  0.26385606  0.72005882  0.82249701    -0.16200
C384        C  0.28883676  0.74911198  0.83028336     0.04400
C385        C  0.28462706  0.75315376  0.84598662     0.04400
C386        C  0.25546296  0.72809566  0.85368827    -0.16200
H387        H  0.25221286  0.73119841  0.86577753     0.06400
H388        H  0.26710546  0.71695453  0.81040823     0.06400
C389        C  0.28054443  0.99388126  0.51263391     0.04400
C390        C  0.28465849  0.50170894  0.49687875     0.04400
C391        C  0.31378404  0.50568281  0.48921684    -0.16200
C392        C  0.33883078  0.50189778  0.49709337     0.04400
C393        C  0.33469106  0.99401731  0.51284118     0.04400
C394        C  0.30558380  0.99007443  0.52050713    -0.16200
H395        H  0.30241263  0.98403290  0.53263337     0.06400
H396        H  0.31695517  0.51171321  0.47708946     0.06400
C397        C  0.03829958  0.72233502  0.18799450    -0.16400
C398        C  0.04150631  0.70079249  0.19480409     0.07700
C399        C  0.04513136  0.67532377  0.20262849     0.09500
C400        C  0.04814600  0.65349535  0.20927685    -0.17200
C401        C  0.03849957  0.83144492  0.18775413    -0.16400
C402        C  0.04186018  0.85640977  0.19439706     0.07700
C403        C  0.04565244  0.88573660  0.20203348     0.09500
C404        C  0.04878393  0.91068250  0.20860540    -0.17200
C405        C  0.01303135  0.63574202  0.13429090    -0.16400
C406        C  0.01592942  0.66049776  0.14095320     0.07700
C407        C  0.01941528  0.68953818  0.14874527     0.09500
C408        C  0.02252052  0.71428402  0.15549793    -0.17200
C409        C  0.02233406  0.82320582  0.15532999    -0.16400
C410        C  0.01908221  0.84481759  0.14860790     0.07700
C411        C  0.01543981  0.87040728  0.14090493     0.09500
C412        C  0.01243845  0.89230947  0.13431675    -0.17200
C413        C  0.42884776  0.97974266  0.54241273    -0.16400
C414        C  0.40703361  0.98286943  0.53581033     0.07700
C415        C  0.38155272  0.98660799  0.52805858     0.09500
C416        C  0.36002020  0.98990065  0.52128489    -0.17200
C417        C  0.17197434  0.97960156  0.54204562    -0.16400
C418        C  0.19683292  0.98270534  0.53538599     0.07700
C419        C  0.22601239  0.98643239  0.52761301     0.09500
C420        C  0.25088718  0.98972830  0.52089346    -0.17200
C421        C  0.08038195  0.54279960  0.35998458    -0.16400
C422        C  0.08017918  0.54407883  0.34620444     0.07700
C423        C  0.07921408  0.54490364  0.33006611     0.09500
C424        C  0.07779454  0.54497340  0.31628784    -0.17200
C425        C  0.44764597  0.51611790  0.46793579    -0.16400
C426        C  0.42277003  0.51310582  0.47454447     0.07700
C427        C  0.39349569  0.50942141  0.48221112     0.09500
C428        C  0.36853272  0.50610968  0.48885402    -0.17200
C429        C  0.25927500  0.50568239  0.48840730    -0.16400
C430        C  0.23774263  0.50881786  0.48154787     0.07700
C431        C  0.21226605  0.51234276  0.47367411     0.09500
C432        C  0.19040279  0.51525742  0.46700033    -0.17200
C433        C  0.03403209  0.94978729  0.69334445    -0.16400
C434        C  0.03489651  0.94958932  0.67955588     0.07700
C435        C  0.03585305  0.95001871  0.66340401     0.09500
C436        C  0.03664053  0.95097179  0.64961302    -0.17200
C437        C  0.39757234  0.84300813  0.80075289    -0.16400
C438        C  0.37265824  0.82132390  0.80742629     0.07700
C439        C  0.34343751  0.79597539  0.81523152     0.09500
C440        C  0.31853001  0.77449272  0.82198531    -0.17200
C441        C  0.14092094  0.58626565  0.80061190    -0.16400
C442        C  0.16262813  0.61122317  0.80725529     0.07700
C443        C  0.18797358  0.64047210  0.81505255     0.09500
C444        C  0.20941307  0.66536858  0.82182962    -0.17200
C445        C  0.48688886  0.49809935  0.98301002    -0.16400
C446        C  0.48664221  0.49917920  0.99679472     0.07700
C447        C  0.48695967  0.00038710  0.01294464     0.09500
C448        C  0.48775486  0.00133694  0.02673677    -0.17200
C449        C  0.37849141  0.86158405  0.87571558    -0.16400
C450        C  0.35674716  0.83673193  0.86902666     0.07700
C451        C  0.33139138  0.80758697  0.86117392     0.09500
C452        C  0.30994193  0.78275189  0.85436549    -0.17200
C453        C  0.20073114  0.67369602  0.85418461    -0.16400
C454        C  0.17576429  0.65220521  0.86090520     0.07700
C455        C  0.14648826  0.62681408  0.86866919     0.09500
C456        C  0.12157485  0.60507834  0.87532802    -0.17200
N457        N  0.93466150  0.42742036  0.90207203    -0.25200
N458        N  0.95104262  0.44031951  0.88902548    -0.33000
C459        C  0.93326570  0.41872027  0.87755219     0.03200
C460        C  0.90446470  0.39108414  0.88373767     0.09200
C461        C  0.90603106  0.39728339  0.89926153    -0.03900
H462        H  0.94088387  0.42277844  0.86564053     0.09900
H463        H  0.88788892  0.38106614  0.90789479     0.11100
Cu464      Cu  0.49705484  0.48640138  0.88746729     0.44200
Cu465      Cu  0.95221934  0.45105034  0.92311412     0.42000
Cu466      Cu  0.53245878  0.03188726  0.92290477     0.43900
N467        N  0.54299352  0.03259475  0.88882607    -0.32600
N468        N  0.55590544  0.04922388  0.90181555    -0.26800
C469        C  0.58596455  0.07787362  0.89892003    -0.02900
C470        C  0.59210083  0.07920027  0.88339877     0.09300
C471        C  0.56450941  0.05023261  0.87729992     0.03100
H472        H  0.60219402  0.09617293  0.90749813     0.10700
H473        H  0.56044591  0.04239161  0.86541800     0.09800
N474        N  0.50468882  0.00884160  0.94258133    -0.34000
N475        N  0.97539062  0.47930039  0.94266702    -0.26200
C476        C  0.96432224  0.47111885  0.95719378    -0.01400
C477        C  0.98779777  0.99677095  0.96659594     0.07200
C478        C  0.51306070  0.02026220  0.95704735     0.05300
H479        H  0.94114535  0.44805633  0.96063228     0.10400
H480        H  0.53600649  0.04369614  0.96034801     0.09200
N481        N  0.58524746  0.01993803  0.77433531    -0.25200
N482        N  0.56854520  0.00733878  0.78733999    -0.33000
C483        C  0.58607926  0.02916312  0.79878551     0.03200
C484        C  0.61505983  0.05663613  0.79261962     0.09200
C485        C  0.61384630  0.05010250  0.77713986    -0.03900
H486        H  0.57817927  0.02536899  0.81066092     0.09900
H487        H  0.63220382  0.06611610  0.76853001     0.11100
Cu488      Cu  0.52242096  0.46135628  0.78881063     0.44200
Cu489      Cu  0.56804011  0.99588437  0.75335509     0.42000
Cu490      Cu  0.98737277  0.41554404  0.75330036     0.43900
N491        N  0.97639110  0.41527736  0.78733909    -0.32600
N492        N  0.96363382  0.39855681  0.77435245    -0.26800
C493        C  0.93348265  0.36998979  0.77721461    -0.02900
C494        C  0.92712419  0.36881911  0.79270766     0.09300
C495        C  0.95467634  0.39778123  0.79882584     0.03100
H496        H  0.91736461  0.35162161  0.76863430     0.10700
H497        H  0.95860293  0.40569490  0.81069825     0.09800
N498        N  0.51559477  0.43844246  0.73371523    -0.34000
N499        N  0.54508316  0.46779295  0.73374338    -0.26200
C500        C  0.55641418  0.47607363  0.71925963    -0.01400
C501        C  0.53292031  0.45069215  0.70976218     0.07200
C502        C  0.50735574  0.42724493  0.71921085     0.05300
H503        H  0.57973794  0.99908346  0.71590846     0.10400
H504        H  0.98426607  0.40405155  0.71581529     0.09200
N505        N  0.63384662  0.02458960  0.44076245    -0.25200
N506        N  0.61766045  0.02119213  0.45385316    -0.33000
C507        C  0.63559451  0.01746739  0.46528552     0.03200
C508        C  0.66428079  0.01859997  0.45902915     0.09200
C509        C  0.66249341  0.02311813  0.44350595    -0.03900
H510        H  0.62817788  0.01403156  0.47722200     0.09900
H511        H  0.68051784  0.02502945  0.43482945     0.11100
Cu512      Cu  0.57173474  0.02132494  0.45557708     0.44200
Cu513      Cu  0.61614173  0.03061209  0.41974104     0.42000
Cu514      Cu  0.53618669  0.03150539  0.42025969     0.43900
N515        N  0.52590941  0.02177569  0.45434761    -0.32600
N516        N  0.51295735  0.02554133  0.44137706    -0.26800
C517        C  0.98302480  0.02429215  0.44431219    -0.02900
C518        C  0.97699756  0.01953878  0.45984319     0.09300
C519        C  0.50453658  0.01802800  0.46590748     0.03100
H520        H  0.96680375  0.02643552  0.43575309     0.10700
H521        H  0.50865835  0.01425186  0.47778651     0.09800
N522        N  0.56349580  0.03600550  0.40048010    -0.34000
N523        N  0.59270497  0.03565629  0.40026911    -0.26200
C524        C  0.60344658  0.03842106  0.38569421    -0.01400
C525        C  0.57984121  0.04062737  0.37639758     0.07200
C526        C  0.55485085  0.03899943  0.38605453     0.05300
H527        H  0.62648776  0.03844153  0.38215373     0.10400
H528        H  0.53190598  0.03955725  0.38285591     0.09200
N529        N  0.98474746  0.46937207  0.56865093    -0.28200
N530        N  0.00137189  0.47346921  0.55562923    -0.33000
C531        C  0.98374778  0.47766602  0.54419236     0.03200
C532        C  0.95479776  0.47610293  0.55038239     0.09200
C533        C  0.95611989  0.47084660  0.56586545    -0.03900
H534        H  0.99155768  0.48173077  0.53230523     0.09900
H535        H  0.93780944  0.46847491  0.57449090     0.11100
Cu536      Cu  0.54748406  0.47365769  0.55409981     0.44200
Cu537      Cu  0.00202772  0.46262864  0.58963907     0.42000
Cu538      Cu  0.58256790  0.46284944  0.58956218     0.43900
N539        N  0.59342193  0.47345618  0.55550885    -0.32600
N540        N  0.60617617  0.46944282  0.56849030    -0.26800
C541        C  0.63621523  0.47086902  0.56560843    -0.02900
C542        C  0.64251863  0.47601127  0.55010598     0.09300
C543        C  0.61503517  0.47755583  0.54400427     0.03100
H544        H  0.65230053  0.46854625  0.57418235     0.10700
H545        H  0.61108598  0.48154533  0.53213024     0.09800
N546        N  0.55459766  0.45770939  0.60920122    -0.34000
N547        N  0.52515991  0.45761260  0.60922041    -0.26200
C548        C  0.51401247  0.45469373  0.62372644    -0.01400
C549        C  0.53757170  0.45284890  0.63319022     0.07200
C550        C  0.56298554  0.45485413  0.62369801     0.05300
H551        H  0.99076915  0.45444155  0.62711468     0.10400
H552        H  0.58607544  0.45474777  0.62705770     0.09200
N553        N  0.50305900  0.44863569  0.10796722    -0.25200
N554        N  0.50663010  0.46502521  0.12100589    -0.33000
C555        C  0.51034155  0.44719297  0.13249280     0.03200
C556        C  0.50901011  0.41834929  0.12631430     0.09200
C557        C  0.50439803  0.41995864  0.11078810    -0.03900
H558        H  0.51397025  0.45481327  0.14440298     0.09900
H559        H  0.50241573  0.40183025  0.10215599     0.11100
Cu560      Cu  0.50690272  0.01117351  0.12244549     0.44200
Cu561      Cu  0.49729448  0.46636401  0.08691090     0.42000
Cu562      Cu  0.49807801  0.04711222  0.08675062     0.43900
N563        N  0.50707038  0.05726586  0.12090631    -0.32600
N564        N  0.50381423  0.07032863  0.10785991    -0.26800
C565        C  0.50530046  0.10039681  0.11070275    -0.02900
C566        C  0.50968533  0.10639240  0.12624428     0.09300
C567        C  0.51072422  0.07870376  0.13241158     0.03100
H568        H  0.50351668  0.11670194  0.10207825     0.10700
H569        H  0.51406568  0.07449232  0.14433339     0.09800
N570        N  0.99355430  0.01929978  0.06713751    -0.34000
N571        N  0.99324120  0.48976687  0.06721329    -0.26200
C572        C  0.99070685  0.47865463  0.05272384    -0.01400
C573        C  0.98934252  0.50233560  0.04316732     0.07200
C574        C  0.99122638  0.02778732  0.05259096     0.05300
H575        H  0.99031628  0.45531097  0.04941441     0.10400
H576        H  0.99131704  0.05092685  0.04915654     0.09200
N577        N  0.55799774  0.09725654  0.23550851    -0.25200
N578        N  0.55423264  0.08086430  0.22244866    -0.33000
C579        C  0.55026226  0.09864650  0.21101936     0.03200
C580        C  0.55162222  0.12745323  0.21724707     0.09200
C581        C  0.55652813  0.12588893  0.23274919    -0.03900
H582        H  0.54651201  0.09105012  0.19910597     0.09900
H583        H  0.55870338  0.14405702  0.24140203     0.11100
Cu584      Cu  0.55424827  0.03488767  0.22078721     0.44200
Cu585      Cu  0.56449820  0.07982547  0.25651171     0.42000
Cu586      Cu  0.56524404  0.49983895  0.25612814     0.43900
N587        N  0.55470905  0.48909027  0.22208647    -0.32600
N588        N  0.55877702  0.47633762  0.23505408    -0.26800
C589        C  0.55747313  0.44638049  0.23215460    -0.02900
C590        C  0.55236421  0.44012707  0.21665187     0.09300
C591        C  0.55070338  0.46755599  0.21056522     0.03100
H592        H  0.55982796  0.43030055  0.24071969     0.10700
H593        H  0.54666250  0.47150051  0.19869755     0.09800
N594        N  0.57026010  0.02749452  0.27584282    -0.34000
N595        N  0.56996707  0.05672196  0.27600440    -0.26200
C596        C  0.57304685  0.06770109  0.29055118    -0.01400
C597        C  0.57540217  0.04423175  0.29988045     0.07200
C598        C  0.57353230  0.01907419  0.29027210     0.05300
H599        H  0.57314445  0.09079231  0.29405341     0.10400
H600        H  0.57407972  0.49615173  0.29350906     0.09200
C601        C  0.52645503  0.29781805  0.16372106     0.04400
C602        C  0.53429654  0.30181781  0.17947186     0.04400
C603        C  0.53812204  0.27674695  0.18729872    -0.16200
C604        C  0.53425381  0.24773991  0.17957987     0.04400
C605        C  0.52648930  0.24377726  0.16381904     0.04400
C606        C  0.52261211  0.26882658  0.15599851    -0.16200
H607        H  0.51662302  0.26576755  0.14386791     0.06400
H608        H  0.54412767  0.27982047  0.19942782     0.06400
C609        C  0.73047071  0.19905203  0.84589942     0.04400
C610        C  0.73470001  0.19499693  0.83019988     0.04400
C611        C  0.76385610  0.22005886  0.82249701    -0.16200
C612        C  0.78883668  0.24911204  0.83028330     0.04400
C613        C  0.78462704  0.25315369  0.84598659     0.04400
C614        C  0.75546285  0.22809565  0.85368821    -0.16200
H615        H  0.75221265  0.23119825  0.86577748     0.06400
H616        H  0.76710567  0.21695453  0.81040786     0.06400
C617        C  0.78054444  0.49388131  0.51263392     0.04400
C618        C  0.78465851  0.00170901  0.49687876     0.04400
C619        C  0.81378401  0.00568277  0.48921685    -0.16200
C620        C  0.83883076  0.00189783  0.49709343     0.04400
C621        C  0.83469112  0.49401737  0.51284117     0.04400
C622        C  0.80558381  0.49007443  0.52050714    -0.16200
H623        H  0.80241287  0.48403340  0.53263334     0.06400
H624        H  0.81695500  0.01171285  0.47708950     0.06400
C625        C  0.53829946  0.22233493  0.18799450    -0.16400
C626        C  0.54150627  0.20079245  0.19480408     0.07700
C627        C  0.54513127  0.17532373  0.20262847     0.09500
C628        C  0.54814603  0.15349538  0.20927682    -0.17200
C629        C  0.53849957  0.33144491  0.18775415    -0.16400
C630        C  0.54186020  0.35640976  0.19439708     0.07700
C631        C  0.54565246  0.38573660  0.20203351     0.09500
C632        C  0.54878393  0.41068250  0.20860544    -0.17200
C633        C  0.51303136  0.13574205  0.13429090    -0.16400
C634        C  0.51592937  0.16049777  0.14095319     0.07700
C635        C  0.51941509  0.18953812  0.14874523     0.09500
C636        C  0.52252049  0.21428402  0.15549789    -0.17200
C637        C  0.52233411  0.32320585  0.15532999    -0.16400
C638        C  0.51908219  0.34481760  0.14860791     0.07700
C639        C  0.51543976  0.37040726  0.14090491     0.09500
C640        C  0.51243832  0.39230942  0.13431675    -0.17200
C641        C  0.92884767  0.47974263  0.54241273    -0.16400
C642        C  0.90703368  0.48286960  0.53581032     0.07700
C643        C  0.88155269  0.48660794  0.52805859     0.09500
C644        C  0.86002031  0.48990072  0.52128487    -0.17200
C645        C  0.67197435  0.47960155  0.54204562    -0.16400
C646        C  0.69683287  0.48270526  0.53538598     0.07700
C647        C  0.72601232  0.48643229  0.52761303     0.09500
C648        C  0.75088712  0.48972824  0.52089347    -0.17200
C649        C  0.58038200  0.04279958  0.35998457    -0.16400
C650        C  0.58017905  0.04407885  0.34620444     0.07700
C651        C  0.57921415  0.04490374  0.33006611     0.09500
C652        C  0.57779448  0.04497355  0.31628784    -0.17200
C653        C  0.94764592  0.01611782  0.46793576    -0.16400
C654        C  0.92277003  0.01310575  0.47454449     0.07700
C655        C  0.89349567  0.00942147  0.48221114     0.09500
C656        C  0.86853268  0.00610966  0.48885408    -0.17200
C657        C  0.75927497  0.00568236  0.48840731    -0.16400
C658        C  0.73774267  0.00881792  0.48154787     0.07700
C659        C  0.71226603  0.01234269  0.47367409     0.09500
C660        C  0.69040277  0.01525734  0.46700031    -0.17200
C661        C  0.53403212  0.44978724  0.69334445    -0.16400
C662        C  0.53489657  0.44958934  0.67955587     0.07700
C663        C  0.53585308  0.45001866  0.66340401     0.09500
C664        C  0.53664063  0.45097188  0.64961302    -0.17200
C665        C  0.89757226  0.34300824  0.80075288    -0.16400
C666        C  0.87265820  0.32132400  0.80742629     0.07700
C667        C  0.84343746  0.29597551  0.81523151     0.09500
C668        C  0.81853004  0.27449278  0.82198532    -0.17200
C669        C  0.64092093  0.08626559  0.80061192    -0.16400
C670        C  0.66262815  0.11122316  0.80725528     0.07700
C671        C  0.68797364  0.14047207  0.81505257     0.09500
C672        C  0.70941315  0.16536858  0.82182962    -0.17200
C673        C  0.98688898  0.99809934  0.98301003    -0.16400
C674        C  0.98664214  0.99917909  0.99679472     0.07700
C675        C  0.98695961  0.50038709  0.01294465     0.09500
C676        C  0.98775474  0.50133688  0.02673679    -0.17200
C677        C  0.87849141  0.36158411  0.87571558    -0.16400
C678        C  0.85674708  0.33673196  0.86902670     0.07700
C679        C  0.83139139  0.30758692  0.86117392     0.09500
C680        C  0.80994182  0.28275191  0.85436546    -0.17200
C681        C  0.70073122  0.17369606  0.85418458    -0.16400
C682        C  0.67576437  0.15220518  0.86090519     0.07700
C683        C  0.64648825  0.12681404  0.86866921     0.09500
C684        C  0.62157478  0.10507826  0.87532801    -0.17200
N685        N  0.93466142  0.92742033  0.90207203    -0.25200
N686        N  0.95104264  0.94031951  0.88902550    -0.33000
C687        C  0.93326576  0.91872023  0.87755222     0.03200
C688        C  0.90446463  0.89108411  0.88373769     0.09200
C689        C  0.90603100  0.89728341  0.89926153    -0.03900
H690        H  0.94088401  0.92277838  0.86564056     0.09900
H691        H  0.88788829  0.88106620  0.90789490     0.11100
Cu692      Cu  0.49705491  0.98640146  0.88746729     0.44200
Cu693      Cu  0.95221936  0.95105038  0.92311411     0.42000
Cu694      Cu  0.53245881  0.53188732  0.92290477     0.43900
N695        N  0.54299346  0.53259472  0.88882607    -0.32600
N696        N  0.55590547  0.54922387  0.90181554    -0.26800
C697        C  0.58596464  0.57787367  0.89892004    -0.02900
C698        C  0.59210089  0.57920025  0.88339877     0.09300
C699        C  0.56450936  0.55023258  0.87729991     0.03100
H700        H  0.60219414  0.59617283  0.90749809     0.10700
H701        H  0.56044583  0.54239156  0.86541800     0.09800
N702        N  0.50468875  0.50884170  0.94258132    -0.34000
N703        N  0.97539059  0.97930035  0.94266702    -0.26200
C704        C  0.96432215  0.97111867  0.95719378    -0.01400
C705        C  0.98779781  0.49677103  0.96659594     0.07200
C706        C  0.51306064  0.52026235  0.95704735     0.05300
H707        H  0.94114533  0.94805630  0.96063224     0.10400
H708        H  0.53600595  0.54369614  0.96034796     0.09200
N709        N  0.58524736  0.51993790  0.77433538    -0.25200
N710        N  0.56854513  0.50733873  0.78734003    -0.33000
C711        C  0.58607924  0.52916314  0.79878556     0.03200
C712        C  0.61505980  0.55663607  0.79261967     0.09200
C713        C  0.61384638  0.55010256  0.77713985    -0.03900
H714        H  0.57817932  0.52536925  0.81066094     0.09900
H715        H  0.63220334  0.56611536  0.76853038     0.11100
Cu716      Cu  0.52242102  0.96135634  0.78881062     0.44200
Cu717      Cu  0.56804008  0.49588432  0.75335510     0.42000
Cu718      Cu  0.98737280  0.91554407  0.75330036     0.43900
N719        N  0.97639118  0.91527745  0.78733911    -0.32600
N720        N  0.96363392  0.89855688  0.77435248    -0.26800
C721        C  0.93348269  0.86998981  0.77721461    -0.02900
C722        C  0.92712426  0.86881920  0.79270770     0.09300
C723        C  0.95467648  0.89778127  0.79882586     0.03100
H724        H  0.91736490  0.85162215  0.76863442     0.10700
H725        H  0.95860307  0.90569522  0.81069836     0.09800
N726        N  0.51559469  0.93844238  0.73371522    -0.34000
N727        N  0.54508304  0.96779289  0.73374342    -0.26200
C728        C  0.55641402  0.97607369  0.71925967    -0.01400
C729        C  0.53292018  0.95069215  0.70976219     0.07200
C730        C  0.50735562  0.92724482  0.71921083     0.05300
H731        H  0.57973848  0.49908340  0.71590838     0.10400
H732        H  0.98426565  0.90405088  0.71581518     0.09200
N733        N  0.63384667  0.52458967  0.44076244    -0.25200
N734        N  0.61766054  0.52119221  0.45385316    -0.33000
C735        C  0.63559457  0.51746747  0.46528553     0.03200
C736        C  0.66428082  0.51860004  0.45902915     0.09200
C737        C  0.66249342  0.52311819  0.44350594    -0.03900
H738        H  0.62817790  0.51403165  0.47722201     0.09900
H739        H  0.68051798  0.52502978  0.43482944     0.11100
Cu740      Cu  0.57173480  0.52132502  0.45557707     0.44200
Cu741      Cu  0.61614178  0.53061217  0.41974104     0.42000
Cu742      Cu  0.53618673  0.53150547  0.42025969     0.43900
N743        N  0.52590941  0.52177577  0.45434758    -0.32600
N744        N  0.51295732  0.52554142  0.44137702    -0.26800
C745        C  0.98302482  0.52429223  0.44431218    -0.02900
C746        C  0.97699760  0.51953886  0.45984319     0.09300
C747        C  0.50453661  0.51802808  0.46590746     0.03100
H748        H  0.96680377  0.52643559  0.43575309     0.10700
H749        H  0.50865839  0.51425193  0.47778649     0.09800
N750        N  0.56349586  0.53600557  0.40048010    -0.34000
N751        N  0.59270504  0.53565637  0.40026911    -0.26200
C752        C  0.60344660  0.53842105  0.38569421    -0.01400
C753        C  0.57984126  0.54062741  0.37639758     0.07200
C754        C  0.55485085  0.53899939  0.38605453     0.05300
H755        H  0.62648784  0.53844165  0.38215374     0.10400
H756        H  0.53190617  0.53955761  0.38285591     0.09200
N757        N  0.98474737  0.96937206  0.56865094    -0.28200
N758        N  0.00137179  0.97346917  0.55562924    -0.33000
C759        C  0.98374767  0.97766590  0.54419234     0.03200
C760        C  0.95479771  0.97610285  0.55038239     0.09200
C761        C  0.95611986  0.97084669  0.56586547    -0.03900
H762        H  0.99155729  0.98173014  0.53230520     0.09900
H763        H  0.93780952  0.96847515  0.57449091     0.11100
Cu764      Cu  0.54748411  0.97365774  0.55409981     0.44200
Cu765      Cu  0.00202761  0.96262870  0.58963909     0.42000
Cu766      Cu  0.58256796  0.96284951  0.58956218     0.43900
N767        N  0.59342197  0.97345622  0.55550885    -0.32600
N768        N  0.60617618  0.96944278  0.56849029    -0.26800
C769        C  0.63621524  0.97086902  0.56560843    -0.02900
C770        C  0.64251865  0.97601131  0.55010598     0.09300
C771        C  0.61503512  0.97755570  0.54400426     0.03100
H772        H  0.65230066  0.96854648  0.57418236     0.10700
H773        H  0.61108604  0.98154542  0.53213023     0.09800
N774        N  0.55459764  0.95770928  0.60920120    -0.34000
N775        N  0.52515993  0.95761255  0.60922040    -0.26200
C776        C  0.51401239  0.95469364  0.62372642    -0.01400
C777        C  0.53757165  0.95284879  0.63319021     0.07200
C778        C  0.56298555  0.95485420  0.62369799     0.05300
H779        H  0.99076980  0.95444134  0.62711453     0.10400
H780        H  0.58607543  0.95474750  0.62705766     0.09200
N781        N  0.50305905  0.94863570  0.10796722    -0.25200
N782        N  0.50663004  0.96502514  0.12100590    -0.33000
C783        C  0.51034150  0.94719284  0.13249281     0.03200
C784        C  0.50901005  0.91834917  0.12631428     0.09200
C785        C  0.50439796  0.91995854  0.11078808    -0.03900
H786        H  0.51396999  0.95481289  0.14440288     0.09900
H787        H  0.50241583  0.90183027  0.10215598     0.11100
Cu788      Cu  0.50690278  0.51117359  0.12244549     0.44200
Cu789      Cu  0.49729454  0.96636408  0.08691091     0.42000
Cu790      Cu  0.49807796  0.54711209  0.08675063     0.43900
N791        N  0.50707045  0.55726598  0.12090629    -0.32600
N792        N  0.50381428  0.57032871  0.10785988    -0.26800
C793        C  0.50530040  0.60039681  0.11070272    -0.02900
C794        C  0.50968529  0.60639243  0.12624422     0.09300
C795        C  0.51072418  0.57870387  0.13241157     0.03100
H796        H  0.50351674  0.61670231  0.10207813     0.10700
H797        H  0.51406580  0.57449274  0.14433335     0.09800
N798        N  0.99355429  0.51929969  0.06713749    -0.34000
N799        N  0.99324121  0.98976696  0.06721329    -0.26200
C800        C  0.99070690  0.97865472  0.05272383    -0.01400
C801        C  0.98934253  0.00233570  0.04316731     0.07200
C802        C  0.99122640  0.52778721  0.05259094     0.05300
H803        H  0.99031679  0.95531145  0.04941438     0.10400
H804        H  0.99131714  0.55092681  0.04915648     0.09200
N805        N  0.55799768  0.59725651  0.23550849    -0.25200
N806        N  0.55423271  0.58086437  0.22244863    -0.33000
C807        C  0.55026226  0.59864653  0.21101934     0.03200
C808        C  0.55162216  0.62745319  0.21724707     0.09200
C809        C  0.55652812  0.62588895  0.23274921    -0.03900
H810        H  0.54651205  0.59105018  0.19910595     0.09900
H811        H  0.55870345  0.64405682  0.24140196     0.11100
Cu812      Cu  0.55424833  0.53488772  0.22078719     0.44200
Cu813      Cu  0.56449826  0.57982552  0.25651172     0.42000
Cu814      Cu  0.56524409  0.99983898  0.25612815     0.43900
N815        N  0.55470895  0.98909024  0.22208645    -0.32600
N816        N  0.55877698  0.97633761  0.23505407    -0.26800
C817        C  0.55747310  0.94638051  0.23215455    -0.02900
C818        C  0.55236406  0.94012706  0.21665180     0.09300
C819        C  0.55070334  0.96755601  0.21056523     0.03100
H820        H  0.55982789  0.93030049  0.24071961     0.10700
H821        H  0.54666195  0.97150051  0.19869722     0.09800
N822        N  0.57026014  0.52749458  0.27584279    -0.34000
N823        N  0.56996714  0.55672202  0.27600441    -0.26200
C824        C  0.57304687  0.56770107  0.29055120    -0.01400
C825        C  0.57540218  0.54423176  0.29988045     0.07200
C826        C  0.57353229  0.51907417  0.29027208     0.05300
H827        H  0.57314449  0.59079235  0.29405348     0.10400
H828        H  0.57407963  0.99615141  0.29350916     0.09200
C829        C  0.52645490  0.79781799  0.16372106     0.04400
C830        C  0.53429653  0.80181782  0.17947184     0.04400
C831        C  0.53812209  0.77674701  0.18729870    -0.16200
C832        C  0.53425385  0.74773997  0.17957986     0.04400
C833        C  0.52648926  0.74377726  0.16381906     0.04400
C834        C  0.52261200  0.76882652  0.15599853    -0.16200
H835        H  0.51662255  0.76576727  0.14386793     0.06400
H836        H  0.54412775  0.77982057  0.19942780     0.06400
C837        C  0.73047070  0.69905201  0.84589946     0.04400
C838        C  0.73470004  0.69499686  0.83019994     0.04400
C839        C  0.76385611  0.72005884  0.82249701    -0.16200
C840        C  0.78883673  0.74911203  0.83028335     0.04400
C841        C  0.78462710  0.75315374  0.84598662     0.04400
C842        C  0.75546298  0.72809566  0.85368827    -0.16200
H843        H  0.75221289  0.73119836  0.86577753     0.06400
H844        H  0.76710573  0.71695445  0.81040821     0.06400
C845        C  0.78054441  0.99388125  0.51263392     0.04400
C846        C  0.78465849  0.50170895  0.49687875     0.04400
C847        C  0.81378404  0.50568281  0.48921684    -0.16200
C848        C  0.83883074  0.50189777  0.49709340     0.04400
C849        C  0.83469104  0.99401730  0.51284119     0.04400
C850        C  0.80558376  0.99007442  0.52050714    -0.16200
H851        H  0.80241254  0.98403290  0.53263338     0.06400
H852        H  0.81695519  0.51171322  0.47708947     0.06400
C853        C  0.53829954  0.72233502  0.18799450    -0.16400
C854        C  0.54150634  0.70079252  0.19480409     0.07700
C855        C  0.54513122  0.67532371  0.20262850     0.09500
C856        C  0.54814605  0.65349538  0.20927684    -0.17200
C857        C  0.53849962  0.83144496  0.18775414    -0.16400
C858        C  0.54186005  0.85640973  0.19439705     0.07700
C859        C  0.54565236  0.88573657  0.20203348     0.09500
C860        C  0.54878381  0.91068247  0.20860539    -0.17200
C861        C  0.51303125  0.63574199  0.13429090    -0.16400
C862        C  0.51592925  0.66049772  0.14095319     0.07700
C863        C  0.51941511  0.68953814  0.14874526     0.09500
C864        C  0.52252044  0.71428401  0.15549793    -0.17200
C865        C  0.52233413  0.82320587  0.15532998    -0.16400
C866        C  0.51908220  0.84481760  0.14860790     0.07700
C867        C  0.51543977  0.87040724  0.14090491     0.09500
C868        C  0.51243830  0.89230938  0.13431676    -0.17200
C869        C  0.92884769  0.97974265  0.54241274    -0.16400
C870        C  0.90703358  0.98286944  0.53581031     0.07700
C871        C  0.88155271  0.98660799  0.52805858     0.09500
C872        C  0.86002025  0.98990066  0.52128487    -0.17200
C873        C  0.67197434  0.97960155  0.54204563    -0.16400
C874        C  0.69683290  0.98270534  0.53538599     0.07700
C875        C  0.72601237  0.98643239  0.52761302     0.09500
C876        C  0.75088718  0.98972829  0.52089349    -0.17200
C877        C  0.58038203  0.54279960  0.35998457    -0.16400
C878        C  0.58017907  0.54407883  0.34620444     0.07700
C879        C  0.57921413  0.54490365  0.33006611     0.09500
C880        C  0.57779441  0.54497343  0.31628784    -0.17200
C881        C  0.94764598  0.51611791  0.46793576    -0.16400
C882        C  0.92277004  0.51310583  0.47454446     0.07700
C883        C  0.89349564  0.50942141  0.48221113     0.09500
C884        C  0.86853266  0.50610967  0.48885404    -0.17200
C885        C  0.75927499  0.50568238  0.48840730    -0.16400
C886        C  0.73774265  0.50881787  0.48154786     0.07700
C887        C  0.71226607  0.51234276  0.47367409     0.09500
C888        C  0.69040280  0.51525743  0.46700030    -0.17200
C889        C  0.53403211  0.94978733  0.69334445    -0.16400
C890        C  0.53489658  0.94958930  0.67955587     0.07700
C891        C  0.53585314  0.95001870  0.66340401     0.09500
C892        C  0.53664062  0.95097179  0.64961302    -0.17200
C893        C  0.89757229  0.84300817  0.80075286    -0.16400
C894        C  0.87265821  0.82132394  0.80742628     0.07700
C895        C  0.84343744  0.79597545  0.81523150     0.09500
C896        C  0.81853003  0.77449271  0.82198532    -0.17200
C897        C  0.64092094  0.58626561  0.80061194    -0.16400
C898        C  0.66262819  0.61122321  0.80725527     0.07700
C899        C  0.68797367  0.64047212  0.81505256     0.09500
C900        C  0.70941316  0.66536860  0.82182963    -0.17200
C901        C  0.98688896  0.49809935  0.98301001    -0.16400
C902        C  0.98664220  0.49917920  0.99679471     0.07700
C903        C  0.98695966  0.00038721  0.01294464     0.09500
C904        C  0.98775474  0.00133690  0.02673677    -0.17200
C905        C  0.87849134  0.86158407  0.87571559    -0.16400
C906        C  0.85674707  0.83673196  0.86902668     0.07700
C907        C  0.83139140  0.80758694  0.86117391     0.09500
C908        C  0.80994185  0.78275193  0.85436549    -0.17200
C909        C  0.70073119  0.67369599  0.85418461    -0.16400
C910        C  0.67576434  0.65220519  0.86090521     0.07700
C911        C  0.64648830  0.62681405  0.86866920     0.09500
C912        C  0.62157486  0.60507832  0.87532802    -0.17200
loop_ 
_geom_bond_atom_site_label_1 
_geom_bond_atom_site_label_2 
_geom_bond_distance 
_geom_bond_site_symmetry_2 
_ccdc_geom_bond_type 
N1            N2   1.323       .  A
N1            C5   1.345       .  A
N1           Cu9   2.072       .  S
N2            C3   1.346       .  A
N2         Cu464   2.075       .  S
C3            C4   1.380       .  A
C3            H6   1.082       .  S
C4            C5   1.379       .  A
C4          C221   1.437       .  S
C5            H7   1.082       .  S
Cu8         N458   2.075       .  S
Cu8         N239   2.075   1_655  S
Cu9          N19   2.072       .  S
Cu10         N12   2.071       .  S
Cu10         N18   2.072       .  S
N11          N12   1.323       .  A
N11          C15   1.346       .  A
N11        Cu236   2.075   1_445  S
N12          C13   1.345       .  A
C13          C14   1.379       .  A
C13          H16   1.082       .  S
C14          C15   1.380       .  A
C14         C228   1.437       .  S
C15          H17   1.082       .  S
N18         N703   1.323   1_445  A
N18          C22   1.345       .  A
N19         N702   1.323       .  A
N19          C20   1.345       .  A
C20         C249   1.379       .  A
C20          H23   1.082       .  S
C21         C248   1.379       .  A
C21         C478   1.379   1_565  A
C21         C217   1.436       .  S
C22         C477   1.379   1_445  A
C22          H24   1.082       .  S
N25          N26   1.323       .  A
N25          C29   1.345       .  A
N25         Cu33   2.072   1_545  S
N26          C27   1.346       .  A
N26        Cu260   2.075   1_545  S
C27          C28   1.380       .  A
C27          H30   1.082       .  S
C28          C29   1.379       .  A
C28         C213   1.437       .  S
C29          H31   1.082       .  S
Cu32        N254   2.075       .  S
Cu32        N491   2.075   1_455  S
Cu33        N271   2.072       .  S
Cu34         N36   2.071       .  S
Cu34        N498   2.071       .  S
N35          N36   1.323       .  A
N35          C39   1.346       .  A
N35        Cu488   2.075       .  S
N36          C37   1.345       .  A
C37          C38   1.379       .  A
C37          H40   1.082       .  S
C38          C39   1.380       .  A
C38         C209   1.437       .  S
C39          H41   1.082       .  S
N42          N43   1.323       .  A
N42          C46   1.345       .  A
N42        Cu490   2.071   1_455  S
N43          C44   1.345       .  A
N43        Cu261   2.072       .  S
C44          C45   1.379       .  A
C44         H275   1.082       .  S
C45          C46   1.379       .  A
C45         C205   1.436       .  S
C46         H504   1.082   1_455  S
H47         C272   1.082       .  S
H48         C502   1.082       .  S
N49          N50   1.323       .  A
N49          C53   1.345       .  A
N49         Cu57   2.072       .  S
N50          C51   1.346       .  A
N50         Cu56   2.076       .  S
C51          C52   1.380       .  A
C51          H54   1.082       .  S
C52          C53   1.379       .  A
C52         C204   1.437       .  S
C53          H55   1.082       .  S
Cu56         N59   2.076       .  S
Cu57         N67   2.072       .  S
Cu58         N60   2.071       .  S
Cu58         N66   2.071       .  S
N59          N60   1.323       .  A
N59          C63   1.346       .  A
N60         C517   1.345   1_455  A
C61         N516   1.345       .  A
C61          C62   1.379       .  A
C61          H64   1.082       .  S
C62         C519   1.380       .  A
C62         C197   1.438       .  S
C63         C518   1.380   1_455  A
C63          H65   1.082       .  S
N66          N67   1.323       .  A
N66          C70   1.345       .  A
N67          C68   1.345       .  A
C68          C69   1.379       .  A
C68          H71   1.082       .  S
C69          C70   1.379       .  A
C69         C193   1.436       .  S
C70          H72   1.082       .  S
N73          N74   1.323       .  A
N73          C77   1.345       .  A
N73         Cu81   2.072       .  S
N74          C75   1.346       .  A
N74        Cu536   2.076       .  S
C75          C76   1.380       .  A
C75          H78   1.082       .  S
C76          C77   1.379       .  A
C76         C185   1.438       .  S
C77          H79   1.082       .  S
Cu80         N83   2.076       .  S
Cu80        N530   2.076       .  S
Cu81        N547   2.072       .  S
Cu82         N84   2.071       .  S
Cu82         N90   2.072       .  S
N83          N84   1.323       .  A
N83          C87   1.346       .  A
N84          C85   1.345       .  A
C85          C86   1.379       .  A
C85          H88   1.082       .  S
C86          C87   1.380       .  A
C86         C189   1.438       .  S
C87          H89   1.082       .  S
N90          N91   1.323       .  A
N90          C94   1.345       .  A
N91          C92   1.345       .  A
N91        Cu537   2.072       .  S
C92          C93   1.379       .  A
C92         H551   1.082   1_455  S
C93          C94   1.379       .  A
C93         C208   1.436       .  S
C94          H96   1.082       .  S
H95         C548   1.082       .  S
N97          N98   1.323       .  A
N97         C101   1.345       .  A
N97        Cu105   2.071   1_455  S
N98          C99   1.346       .  A
N98        Cu332   2.076       .  S
C99         C100   1.380       .  A
C99         H102   1.082       .  S
C100        C101   1.379       .  A
C100        C184   1.438       .  S
C101        H103   1.082       .  S
Cu104       N107   2.076       .  S
Cu104       N326   2.076   1_545  S
Cu105       N571   2.072       .  S
Cu106       N108   2.072   1_655  S
Cu106       N570   2.072       .  S
N107        N108   1.323       .  A
N107        C111   1.346       .  A
N108        C109   1.345       .  A
C109        C110   1.379       .  A
C109        H112   1.082       .  S
C110        C111   1.380       .  A
C110        C177   1.437       .  S
C111        H113   1.082       .  S
N114        N343   1.323   1_545  A
N114        C118   1.345       .  A
N114       Cu562   2.072       .  S
N115        N342   1.323       .  A
N115        C116   1.345       .  A
N115       Cu561   2.072       .  S
C116        C117   1.379       .  A
C116        H119   1.082       .  S
C117        C346   1.379       .  A
C117        C220   1.436       .  S
C118        C345   1.379       .  A
C118        H120   1.082       .  S
N121        N122   1.323       .  A
N121        C125   1.345       .  A
N121       Cu129   2.072       .  S
N122        C123   1.346       .  A
N122       Cu128   2.076       .  S
C123        C124   1.380       .  A
C123        H126   1.082       .  S
C124        C125   1.379       .  A
C124        C172   1.438       .  S
C125        H127   1.082       .  S
Cu128       N359   2.076   1_545  S
Cu129       N139   2.072       .  S
Cu130       N132   2.071       .  S
Cu130       N366   2.071       .  S
N131        N132   1.323       .  A
N131        C135   1.346       .  A
N131       Cu356   2.076       .  S
N132        C133   1.345       .  A
C133        C134   1.379       .  A
C133        H136   1.082       .  S
C134        C135   1.380       .  A
C134        C176   1.437       .  S
C135        H137   1.082       .  S
N138        N139   1.323       .  A
N138        C142   1.345       .  A
N138       Cu358   2.071   1_545  S
N139        C140   1.345       .  A
C140        C141   1.379       .  A
C140        H143   1.082       .  S
C141        C142   1.379       .  A
C141        C196   1.436       .  S
C142        H372   1.082   1_545  S
H144        C370   1.082       .  S
C145        C146   1.409       .  A
C145        C150   1.402       .  A
C145        C181   1.445       .  S
C146        C147   1.402       .  A
C146        C173   1.445       .  S
C147        C148   1.402       .  A
C147        H152   1.085       .  S
C148        C149   1.409       .  A
C148        C169   1.445       .  S
C149        C150   1.402       .  A
C149        C180   1.445       .  S
C150        H151   1.085       .  S
C153        C154   1.409       .  A
C153        C158   1.402       .  A
C153        C225   1.445       .  S
C154        C155   1.401       .  A
C154        C216   1.445       .  S
C155        C156   1.402       .  A
C155        H160   1.085       .  S
C156        C157   1.409       .  A
C156        C212   1.445       .  S
C157        C158   1.402       .  A
C157        C224   1.445       .  S
C158        H159   1.085       .  S
C161        C166   1.402       .  A
C161        C390   1.409       .  A
C161        C192   1.445       .  S
C162        C163   1.402       .  A
C162        C389   1.409   1_545  A
C162        C201   1.445       .  S
C163        C164   1.402       .  A
C163        H168   1.085       .  S
C164        C393   1.409   1_545  A
C164        C200   1.445       .  S
C165        C166   1.402       .  A
C165        C392   1.409       .  A
C165        C188   1.445       .  S
C166        H167   1.085       .  S
C169        C170   1.206       .  T
C170        C171   1.412       .  S
C171        C172   1.206       .  T
C173        C174   1.206       .  T
C174        C175   1.412       .  S
C175        C176   1.206       .  T
C177        C178   1.206       .  T
C178        C179   1.412       .  S
C179        C180   1.206       .  T
C181        C182   1.206       .  T
C182        C183   1.413       .  S
C183        C184   1.206       .  T
C185        C186   1.206       .  T
C186        C187   1.412       .  S
C187        C188   1.206       .  T
C189        C190   1.206       .  T
C190        C191   1.412       .  S
C191        C192   1.206       .  T
C193        C194   1.205       .  T
C194        C195   1.411       .  S
C195        C196   1.205       .  T
C197        C198   1.206       .  T
C198        C199   1.412       .  S
C199        C200   1.206       .  T
C201        C202   1.206       .  T
C202        C203   1.412       .  S
C203        C204   1.206       .  T
C205        C206   1.205       .  T
C206        C207   1.411       .  S
C207        C208   1.205       .  T
C209        C210   1.206       .  T
C210        C211   1.412       .  S
C211        C212   1.206       .  T
C213        C214   1.206       .  T
C214        C215   1.412       .  S
C215        C216   1.206       .  T
C217        C218   1.205       .  T
C218        C447   1.411   1_566  S
C219        C220   1.205       .  T
C219        C446   1.411   1_554  S
C221        C222   1.206       .  T
C222        C223   1.412       .  S
C223        C224   1.206       .  T
C225        C226   1.206       .  T
C226        C227   1.412       .  S
C227        C228   1.206       .  T
N229        N230   1.323       .  A
N229        C233   1.345       .  A
N229       Cu237   2.072       .  S
N230        C231   1.346       .  A
N230       Cu692   2.075       .  S
C231        C232   1.380       .  A
C231        H234   1.082       .  S
C232        C233   1.379       .  A
C232        C449   1.437       .  S
C233        H235   1.082       .  S
Cu236       N686   2.075       .  S
Cu237       N247   2.072       .  S
Cu238       N240   2.071       .  S
Cu238       N246   2.072       .  S
N239        N240   1.323       .  A
N239        C243   1.346       .  A
N240        C241   1.345       .  A
C241        C242   1.379       .  A
C241        H244   1.082       .  S
C242        C243   1.380       .  A
C242        C456   1.437       .  S
C243        H245   1.082       .  S
N246        N475   1.323   1_455  A
N246        C250   1.345       .  A
N247        N474   1.323   1_565  A
N247        C248   1.345       .  A
C248        H251   1.082       .  S
C249        C706   1.379       .  A
C249        C445   1.436       .  S
C250        C705   1.379   1_455  A
C250        H252   1.082       .  S
N253        N254   1.323       .  A
N253        C257   1.345       .  A
N253       Cu261   2.072       .  S
N254        C255   1.346       .  A
C255        C256   1.380       .  A
C255        H258   1.082       .  S
C256        C257   1.379       .  A
C256        C441   1.437       .  S
C257        H259   1.082       .  S
Cu260       N719   2.075   1_455  S
Cu262       N264   2.071       .  S
Cu262       N726   2.071       .  S
N263        N264   1.323       .  A
N263        C267   1.346       .  A
N263       Cu716   2.075       .  S
N264        C265   1.345       .  A
C265        C266   1.379       .  A
C265        H268   1.082       .  S
C266        C267   1.380       .  A
C266        C437   1.437       .  S
C267        H269   1.082       .  S
N270        N271   1.323       .  A
N270        C274   1.345       .  A
N270       Cu718   2.071   1_455  S
N271        C272   1.345       .  A
C272        C273   1.379       .  A
C273        C274   1.379       .  A
C273        C433   1.436       .  S
C274        H732   1.082   1_455  S
H276        C730   1.082       .  S
N277        N278   1.323       .  A
N277        C281   1.345       .  A
N277       Cu285   2.072       .  S
N278        C279   1.346       .  A
N278       Cu284   2.076       .  S
C279        C280   1.380       .  A
C279        H282   1.082       .  S
C280        C281   1.379       .  A
C280        C432   1.437       .  S
C281        H283   1.082       .  S
Cu284       N287   2.076       .  S
Cu285       N295   2.072       .  S
Cu286       N288   2.071       .  S
Cu286       N294   2.071       .  S
N287        N288   1.323       .  A
N287        C291   1.346       .  A
N288        C745   1.345   1_455  A
C289        N744   1.345       .  A
C289        C290   1.379       .  A
C289        H292   1.082       .  S
C290        C747   1.380       .  A
C290        C425   1.438       .  S
C291        C746   1.380   1_455  A
C291        H293   1.082       .  S
N294        N295   1.323       .  A
N294        C298   1.345       .  A
N295        C296   1.345       .  A
C296        C297   1.379       .  A
C296        H299   1.082       .  S
C297        C298   1.379       .  A
C297        C421   1.436       .  S
C298        H300   1.082       .  S
N301        N302   1.323       .  A
N301        C305   1.345       .  A
N301       Cu309   2.072       .  S
N302        C303   1.346       .  A
N302       Cu764   2.076       .  S
C303        C304   1.380       .  A
C303        H306   1.082       .  S
C304        C305   1.379       .  A
C304        C413   1.438       .  S
C305        H307   1.082       .  S
Cu308       N758   2.076       .  S
Cu308       N311   2.076       .  S
Cu309       N775   2.072       .  S
Cu310       N312   2.071       .  S
Cu310       N318   2.072       .  S
N311        N312   1.323       .  A
N311        C315   1.346       .  A
N312        C313   1.345       .  A
C313        C314   1.379       .  A
C313        H316   1.082       .  S
C314        C315   1.380       .  A
C314        C417   1.438       .  S
C315        H317   1.082       .  S
N318        N319   1.323       .  A
N318        C322   1.345       .  A
N319        C320   1.345       .  A
N319       Cu765   2.072       .  S
C320        C321   1.379       .  A
C320        H779   1.082   1_455  S
C321        C322   1.379       .  A
C321        C436   1.436       .  S
C322        H324   1.082       .  S
H323        C776   1.082       .  S
N325        N326   1.323       .  A
N325        C329   1.345       .  A
N325       Cu333   2.071   1_455  S
N326        C327   1.346       .  A
C327        C328   1.380       .  A
C327        H330   1.082       .  S
C328        C329   1.379       .  A
C328        C412   1.438       .  S
C329        H331   1.082       .  S
Cu332       N335   2.076       .  S
Cu333       N799   2.072       .  S
Cu334       N336   2.072   1_655  S
Cu334       N798   2.072       .  S
N335        N336   1.323       .  A
N335        C339   1.346       .  A
N336        C337   1.345       .  A
C337        C338   1.379       .  A
C337        H340   1.082       .  S
C338        C339   1.380       .  A
C338        C405   1.437       .  S
C339        H341   1.082       .  S
N342        C346   1.345       .  A
N342       Cu790   2.072       .  S
N343        C344   1.345       .  A
N343       Cu789   2.072       .  S
C344        C345   1.379   1_565  A
C344        H347   1.082       .  S
C345        C448   1.436       .  S
C346        H348   1.082       .  S
N349        N350   1.323       .  A
N349        C353   1.345       .  A
N349       Cu357   2.072       .  S
N350        C351   1.346       .  A
N350       Cu356   2.076       .  S
C351        C352   1.380       .  A
C351        H354   1.082       .  S
C352        C353   1.379       .  A
C352        C400   1.438       .  S
C353        H355   1.082       .  S
Cu357       N367   2.072       .  S
Cu358       N360   2.071       .  S
N359        N360   1.323       .  A
N359        C363   1.346       .  A
N360        C361   1.345       .  A
C361        C362   1.379       .  A
C361        H364   1.082       .  S
C362        C363   1.380       .  A
C362        C404   1.437       .  S
C363        H365   1.082       .  S
N366        N367   1.323       .  A
N366        C370   1.345       .  A
N367        C368   1.345       .  A
C368        C369   1.379       .  A
C368        H371   1.082       .  S
C369        C370   1.379       .  A
C369        C424   1.436       .  S
C373        C374   1.409       .  A
C373        C378   1.402       .  A
C373        C409   1.445       .  S
C374        C375   1.402       .  A
C374        C401   1.445       .  S
C375        C376   1.402       .  A
C375        H380   1.085       .  S
C376        C377   1.409       .  A
C376        C397   1.445       .  S
C377        C378   1.402       .  A
C377        C408   1.445       .  S
C378        H379   1.085       .  S
C381        C382   1.409       .  A
C381        C386   1.402       .  A
C381        C453   1.445       .  S
C382        C383   1.401       .  A
C382        C444   1.445       .  S
C383        C384   1.402       .  A
C383        H388   1.085       .  S
C384        C385   1.409       .  A
C384        C440   1.445       .  S
C385        C386   1.402       .  A
C385        C452   1.445       .  S
C386        H387   1.085       .  S
C389        C394   1.402       .  A
C389        C420   1.445       .  S
C390        C391   1.402       .  A
C390        C429   1.445       .  S
C391        C392   1.402       .  A
C391        H396   1.085       .  S
C392        C428   1.445       .  S
C393        C394   1.402       .  A
C393        C416   1.445       .  S
C394        H395   1.085       .  S
C397        C398   1.206       .  T
C398        C399   1.412       .  S
C399        C400   1.206       .  T
C401        C402   1.206       .  T
C402        C403   1.412       .  S
C403        C404   1.206       .  T
C405        C406   1.206       .  T
C406        C407   1.412       .  S
C407        C408   1.206       .  T
C409        C410   1.206       .  T
C410        C411   1.413       .  S
C411        C412   1.206       .  T
C413        C414   1.206       .  T
C414        C415   1.412       .  S
C415        C416   1.206       .  T
C417        C418   1.206       .  T
C418        C419   1.412       .  S
C419        C420   1.206       .  T
C421        C422   1.205       .  T
C422        C423   1.411       .  S
C423        C424   1.205       .  T
C425        C426   1.206       .  T
C426        C427   1.412       .  S
C427        C428   1.206       .  T
C429        C430   1.206       .  T
C430        C431   1.412       .  S
C431        C432   1.206       .  T
C433        C434   1.205       .  T
C434        C435   1.411       .  S
C435        C436   1.205       .  T
C437        C438   1.206       .  T
C438        C439   1.412       .  S
C439        C440   1.206       .  T
C441        C442   1.206       .  T
C442        C443   1.412       .  S
C443        C444   1.206       .  T
C445        C446   1.205       .  T
C447        C448   1.205       .  T
C449        C450   1.206       .  T
C450        C451   1.412       .  S
C451        C452   1.206       .  T
C453        C454   1.206       .  T
C454        C455   1.412       .  S
C455        C456   1.206       .  T
N457        N458   1.323       .  A
N457        C461   1.345       .  A
N457       Cu465   2.072       .  S
N458        C459   1.346       .  A
C459        C460   1.380       .  A
C459        H462   1.082       .  S
C460        C461   1.379       .  A
C460        C677   1.437       .  S
C461        H463   1.082       .  S
Cu464       N695   2.075       .  S
Cu465       N475   2.072       .  S
Cu466       N468   2.071       .  S
Cu466       N474   2.072       .  S
N467        N468   1.323       .  A
N467        C471   1.346       .  A
N467       Cu692   2.075   1_545  S
N468        C469   1.345       .  A
C469        C470   1.379       .  A
C469        H472   1.082       .  S
C470        C471   1.380       .  A
C470        C684   1.437       .  S
C471        H473   1.082       .  S
N474        C478   1.345       .  A
N475        C476   1.345       .  A
C476        C705   1.379       .  A
C476        H479   1.082       .  S
C477        C704   1.379       .  A
C477        C673   1.436       .  S
C478        H480   1.082       .  S
N481        N482   1.323       .  A
N481        C485   1.345       .  A
N481       Cu489   2.072   1_545  S
N482        C483   1.346       .  A
N482       Cu716   2.075   1_545  S
C483        C484   1.380       .  A
C483        H486   1.082       .  S
C484        C485   1.379       .  A
C484        C669   1.437       .  S
C485        H487   1.082       .  S
Cu488       N710   2.075       .  S
Cu489       N727   2.072       .  S
Cu490       N492   2.071       .  S
N491        N492   1.323       .  A
N491        C495   1.346       .  A
N492        C493   1.345       .  A
C493        C494   1.379       .  A
C493        H496   1.082       .  S
C494        C495   1.380       .  A
C494        C665   1.437       .  S
C495        H497   1.082       .  S
N498        N499   1.323       .  A
N498        C502   1.345       .  A
N499        C500   1.345       .  A
N499       Cu717   2.072       .  S
C500        C501   1.379       .  A
C500        H731   1.082       .  S
C501        C502   1.379       .  A
C501        C661   1.436       .  S
H503        C728   1.082       .  S
N505        N506   1.323       .  A
N505        C509   1.345       .  A
N505       Cu513   2.072       .  S
N506        C507   1.346       .  A
N506       Cu512   2.076       .  S
C507        C508   1.380       .  A
C507        H510   1.082       .  S
C508        C509   1.379       .  A
C508        C660   1.437       .  S
C509        H511   1.082       .  S
Cu512       N515   2.076       .  S
Cu513       N523   2.072       .  S
Cu514       N516   2.071       .  S
Cu514       N522   2.071       .  S
N515        N516   1.323       .  A
N515        C519   1.346       .  A
C517        C518   1.379       .  A
C517        H520   1.082       .  S
C518        C653   1.438       .  S
C519        H521   1.082       .  S
N522        N523   1.323       .  A
N522        C526   1.345       .  A
N523        C524   1.345       .  A
C524        C525   1.379       .  A
C524        H527   1.082       .  S
C525        C526   1.379       .  A
C525        C649   1.436       .  S
C526        H528   1.082       .  S
N529        N530   1.323   1_655  A
N529        C533   1.345       .  A
N529       Cu537   2.072   1_655  S
N530        C531   1.346   1_455  A
C531        C532   1.380       .  A
C531        H534   1.082       .  S
C532        C533   1.379       .  A
C532        C641   1.438       .  S
C533        H535   1.082       .  S
Cu536       N539   2.076       .  S
Cu538       N540   2.071       .  S
Cu538       N546   2.072       .  S
N539        N540   1.323       .  A
N539        C543   1.346       .  A
N540        C541   1.345       .  A
C541        C542   1.379       .  A
C541        H544   1.082       .  S
C542        C543   1.380       .  A
C542        C645   1.438       .  S
C543        H545   1.082       .  S
N546        N547   1.323       .  A
N546        C550   1.345       .  A
N547        C548   1.345       .  A
C548        C549   1.379       .  A
C549        C550   1.379       .  A
C549        C664   1.436       .  S
C550        H552   1.082       .  S
N553        N554   1.323       .  A
N553        C557   1.345       .  A
N553       Cu561   2.071       .  S
N554        C555   1.346       .  A
N554       Cu788   2.076       .  S
C555        C556   1.380       .  A
C555        H558   1.082       .  S
C556        C557   1.379       .  A
C556        C640   1.438       .  S
C557        H559   1.082       .  S
Cu560       N782   2.076   1_545  S
Cu560       N563   2.076       .  S
Cu562       N564   2.072       .  S
N563        N564   1.323       .  A
N563        C567   1.346       .  A
N564        C565   1.345       .  A
C565        C566   1.379       .  A
C565        H568   1.082       .  S
C566        C567   1.380       .  A
C566        C633   1.437       .  S
C567        H569   1.082       .  S
N570        N799   1.323   1_545  A
N570        C574   1.345       .  A
N571        N798   1.323       .  A
N571        C572   1.345       .  A
C572        C573   1.379       .  A
C572        H575   1.082       .  S
C573        C802   1.379       .  A
C573        C676   1.436       .  S
C574        C801   1.379       .  A
C574        H576   1.082       .  S
N577        N578   1.323       .  A
N577        C581   1.345       .  A
N577       Cu585   2.072       .  S
N578        C579   1.346       .  A
N578       Cu584   2.076       .  S
C579        C580   1.380       .  A
C579        H582   1.082       .  S
C580        C581   1.379       .  A
C580        C628   1.438       .  S
C581        H583   1.082       .  S
Cu584       N815   2.076   1_545  S
Cu585       N595   2.072       .  S
Cu586       N588   2.071       .  S
Cu586       N822   2.071       .  S
N587        N588   1.323       .  A
N587        C591   1.346       .  A
N587       Cu812   2.076       .  S
N588        C589   1.345       .  A
C589        C590   1.379       .  A
C589        H592   1.082       .  S
C590        C591   1.380       .  A
C590        C632   1.437       .  S
C591        H593   1.082       .  S
N594        N595   1.323       .  A
N594        C598   1.345       .  A
N594       Cu814   2.071   1_545  S
N595        C596   1.345       .  A
C596        C597   1.379       .  A
C596        H599   1.082       .  S
C597        C598   1.379       .  A
C597        C652   1.436       .  S
C598        H828   1.082   1_545  S
H600        C826   1.082       .  S
C601        C602   1.409       .  A
C601        C606   1.402       .  A
C601        C637   1.445       .  S
C602        C603   1.402       .  A
C602        C629   1.445       .  S
C603        C604   1.402       .  A
C603        H608   1.085       .  S
C604        C605   1.409       .  A
C604        C625   1.445       .  S
C605        C606   1.402       .  A
C605        C636   1.445       .  S
C606        H607   1.085       .  S
C609        C610   1.409       .  A
C609        C614   1.402       .  A
C609        C681   1.445       .  S
C610        C611   1.401       .  A
C610        C672   1.445       .  S
C611        C612   1.402       .  A
C611        H616   1.085       .  S
C612        C613   1.409       .  A
C612        C668   1.445       .  S
C613        C614   1.402       .  A
C613        C680   1.445       .  S
C614        H615   1.085       .  S
C617        C846   1.409       .  A
C617        C622   1.402       .  A
C617        C648   1.445       .  S
C618        C845   1.409   1_545  A
C618        C619   1.402       .  A
C618        C657   1.445       .  S
C619        C620   1.402       .  A
C619        H624   1.085       .  S
C620        C849   1.409   1_545  A
C620        C656   1.445       .  S
C621        C848   1.409       .  A
C621        C622   1.402       .  A
C621        C644   1.445       .  S
C622        H623   1.085       .  S
C625        C626   1.206       .  T
C626        C627   1.412       .  S
C627        C628   1.206       .  T
C629        C630   1.206       .  T
C630        C631   1.412       .  S
C631        C632   1.206       .  T
C633        C634   1.206       .  T
C634        C635   1.412       .  S
C635        C636   1.206       .  T
C637        C638   1.206       .  T
C638        C639   1.413       .  S
C639        C640   1.206       .  T
C641        C642   1.206       .  T
C642        C643   1.412       .  S
C643        C644   1.206       .  T
C645        C646   1.206       .  T
C646        C647   1.412       .  S
C647        C648   1.206       .  T
C649        C650   1.205       .  T
C650        C651   1.411       .  S
C651        C652   1.205       .  T
C653        C654   1.206       .  T
C654        C655   1.412       .  S
C655        C656   1.206       .  T
C657        C658   1.206       .  T
C658        C659   1.412       .  S
C659        C660   1.206       .  T
C661        C662   1.205       .  T
C662        C663   1.411       .  S
C663        C664   1.205       .  T
C665        C666   1.206       .  T
C666        C667   1.412       .  S
C667        C668   1.206       .  T
C669        C670   1.206       .  T
C670        C671   1.412       .  S
C671        C672   1.206       .  T
C673        C674   1.205       .  T
C674        C903   1.411   1_566  S
C675        C676   1.205       .  T
C675        C902   1.411   1_554  S
C677        C678   1.206       .  T
C678        C679   1.412       .  S
C679        C680   1.206       .  T
C681        C682   1.206       .  T
C682        C683   1.412       .  S
C683        C684   1.206       .  T
N685        N686   1.323       .  A
N685        C689   1.345       .  A
N685       Cu693   2.072       .  S
N686        C687   1.346       .  A
C687        C688   1.380       .  A
C687        H690   1.082       .  S
C688        C689   1.379       .  A
C688        C905   1.437       .  S
C689        H691   1.082       .  S
Cu693       N703   2.072       .  S
Cu694       N696   2.071       .  S
Cu694       N702   2.072       .  S
N695        N696   1.323       .  A
N695        C699   1.346       .  A
N696        C697   1.345       .  A
C697        C698   1.379       .  A
C697        H700   1.082       .  S
C698        C699   1.380       .  A
C698        C912   1.437       .  S
C699        H701   1.082       .  S
N702        C706   1.345       .  A
N703        C704   1.345       .  A
C704        H707   1.082       .  S
C705        C901   1.436       .  S
C706        H708   1.082       .  S
N709        N710   1.323       .  A
N709        C713   1.345       .  A
N709       Cu717   2.072       .  S
N710        C711   1.346       .  A
C711        C712   1.380       .  A
C711        H714   1.082       .  S
C712        C713   1.379       .  A
C712        C897   1.437       .  S
C713        H715   1.082       .  S
Cu718       N720   2.071       .  S
N719        N720   1.323       .  A
N719        C723   1.346       .  A
N720        C721   1.345       .  A
C721        C722   1.379       .  A
C721        H724   1.082       .  S
C722        C723   1.380       .  A
C722        C893   1.437       .  S
C723        H725   1.082       .  S
N726        N727   1.323       .  A
N726        C730   1.345       .  A
N727        C728   1.345       .  A
C728        C729   1.379       .  A
C729        C730   1.379       .  A
C729        C889   1.436       .  S
N733        N734   1.323       .  A
N733        C737   1.345       .  A
N733       Cu741   2.072       .  S
N734        C735   1.346       .  A
N734       Cu740   2.076       .  S
C735        C736   1.380       .  A
C735        H738   1.082       .  S
C736        C737   1.379       .  A
C736        C888   1.437       .  S
C737        H739   1.082       .  S
Cu740       N743   2.076       .  S
Cu741       N751   2.072       .  S
Cu742       N744   2.071       .  S
Cu742       N750   2.071       .  S
N743        N744   1.323       .  A
N743        C747   1.346       .  A
C745        C746   1.379       .  A
C745        H748   1.082       .  S
C746        C881   1.438       .  S
C747        H749   1.082       .  S
N750        N751   1.323       .  A
N750        C754   1.345       .  A
N751        C752   1.345       .  A
C752        C753   1.379       .  A
C752        H755   1.082       .  S
C753        C754   1.379       .  A
C753        C877   1.436       .  S
C754        H756   1.082       .  S
N757        N758   1.323   1_655  A
N757        C761   1.345       .  A
N757       Cu765   2.072   1_655  S
N758        C759   1.346   1_455  A
C759        C760   1.380       .  A
C759        H762   1.082       .  S
C760        C761   1.379       .  A
C760        C869   1.438       .  S
C761        H763   1.082       .  S
Cu764       N767   2.076       .  S
Cu766       N768   2.071       .  S
Cu766       N774   2.072       .  S
N767        N768   1.323       .  A
N767        C771   1.346       .  A
N768        C769   1.345       .  A
C769        C770   1.379       .  A
C769        H772   1.082       .  S
C770        C771   1.380       .  A
C770        C873   1.438       .  S
C771        H773   1.082       .  S
N774        N775   1.323       .  A
N774        C778   1.345       .  A
N775        C776   1.345       .  A
C776        C777   1.379       .  A
C777        C778   1.379       .  A
C777        C892   1.436       .  S
C778        H780   1.082       .  S
N781        N782   1.323       .  A
N781        C785   1.345       .  A
N781       Cu789   2.071       .  S
N782        C783   1.346       .  A
C783        C784   1.380       .  A
C783        H786   1.082       .  S
C784        C785   1.379       .  A
C784        C868   1.438       .  S
C785        H787   1.082       .  S
Cu788       N791   2.076       .  S
Cu790       N792   2.072       .  S
N791        N792   1.323       .  A
N791        C795   1.346       .  A
N792        C793   1.345       .  A
C793        C794   1.379       .  A
C793        H796   1.082       .  S
C794        C795   1.380       .  A
C794        C861   1.437       .  S
C795        H797   1.082       .  S
N798        C802   1.345       .  A
N799        C800   1.345       .  A
C800        C801   1.379   1_565  A
C800        H803   1.082       .  S
C801        C904   1.436       .  S
C802        H804   1.082       .  S
N805        N806   1.323       .  A
N805        C809   1.345       .  A
N805       Cu813   2.072       .  S
N806        C807   1.346       .  A
N806       Cu812   2.076       .  S
C807        C808   1.380       .  A
C807        H810   1.082       .  S
C808        C809   1.379       .  A
C808        C856   1.438       .  S
C809        H811   1.082       .  S
Cu813       N823   2.072       .  S
Cu814       N816   2.071       .  S
N815        N816   1.323       .  A
N815        C819   1.346       .  A
N816        C817   1.345       .  A
C817        C818   1.379       .  A
C817        H820   1.082       .  S
C818        C819   1.380       .  A
C818        C860   1.437       .  S
C819        H821   1.082       .  S
N822        N823   1.323       .  A
N822        C826   1.345       .  A
N823        C824   1.345       .  A
C824        C825   1.379       .  A
C824        H827   1.082       .  S
C825        C826   1.379       .  A
C825        C880   1.436       .  S
C829        C830   1.409       .  A
C829        C834   1.402       .  A
C829        C865   1.445       .  S
C830        C831   1.402       .  A
C830        C857   1.445       .  S
C831        C832   1.402       .  A
C831        H836   1.085       .  S
C832        C833   1.409       .  A
C832        C853   1.445       .  S
C833        C834   1.402       .  A
C833        C864   1.445       .  S
C834        H835   1.085       .  S
C837        C838   1.409       .  A
C837        C842   1.402       .  A
C837        C909   1.445       .  S
C838        C839   1.401       .  A
C838        C900   1.445       .  S
C839        C840   1.402       .  A
C839        H844   1.085       .  S
C840        C841   1.409       .  A
C840        C896   1.445       .  S
C841        C842   1.402       .  A
C841        C908   1.445       .  S
C842        H843   1.085       .  S
C845        C850   1.402       .  A
C845        C876   1.445       .  S
C846        C847   1.402       .  A
C846        C885   1.445       .  S
C847        C848   1.402       .  A
C847        H852   1.085       .  S
C848        C884   1.445       .  S
C849        C850   1.402       .  A
C849        C872   1.445       .  S
C850        H851   1.085       .  S
C853        C854   1.206       .  T
C854        C855   1.412       .  S
C855        C856   1.206       .  T
C857        C858   1.206       .  T
C858        C859   1.412       .  S
C859        C860   1.206       .  T
C861        C862   1.206       .  T
C862        C863   1.412       .  S
C863        C864   1.206       .  T
C865        C866   1.206       .  T
C866        C867   1.413       .  S
C867        C868   1.206       .  T
C869        C870   1.206       .  T
C870        C871   1.412       .  S
C871        C872   1.206       .  T
C873        C874   1.206       .  T
C874        C875   1.412       .  S
C875        C876   1.206       .  T
C877        C878   1.205       .  T
C878        C879   1.411       .  S
C879        C880   1.205       .  T
C881        C882   1.206       .  T
C882        C883   1.412       .  S
C883        C884   1.206       .  T
C885        C886   1.206       .  T
C886        C887   1.412       .  S
C887        C888   1.206       .  T
C889        C890   1.205       .  T
C890        C891   1.411       .  S
C891        C892   1.205       .  T
C893        C894   1.206       .  T
C894        C895   1.412       .  S
C895        C896   1.206       .  T
C897        C898   1.206       .  T
C898        C899   1.412       .  S
C899        C900   1.206       .  T
C901        C902   1.205       .  T
C903        C904   1.205       .  T
C905        C906   1.206       .  T
C906        C907   1.412       .  S
C907        C908   1.206       .  T
C909        C910   1.206       .  T
C910        C911   1.412       .  S
C911        C912   1.206       .  T
