geometry optimzed in LAMMPS
_audit_creation_date              2020-11-30 
_audit_creation_method            'lammps2cif' 
_symmetry_space_group_name_H-M    'P1' 
_symmetry_Int_Tables_number       1 
_symmetry_cell_setting            triclinic 
loop_ 
_symmetry_equiv_pos_as_xyz 
  x,y,z 
_cell_length_a                    52.40188367 
_cell_length_b                    52.37729778576411 
_cell_length_c                    48.18751023059858 
_cell_angle_alpha                 89.46742896655876 
_cell_angle_beta                  90.49995138089274 
_cell_angle_gamma                 123.44792517261007 
loop_ 
_atom_site_label 
_atom_site_type_symbol 
_atom_site_fract_x 
_atom_site_fract_y 
_atom_site_fract_z 
_atom_site_charge 
N1          N  0.51257019  0.02865306  0.84607125    -0.35900
N2          N  0.47627838  0.03603832  0.80446706    -0.56500
N3          N  0.51402345  0.03725048  0.76040393    -0.35900
N4          N  0.55115641  0.03128533  0.80178606    -0.56500
C5          C  0.49699973  0.03639659  0.86241512     0.27700
C6          C  0.53669466  0.03316561  0.86107498     0.27700
C7          C  0.49867402  0.04737313  0.74658414     0.27700
C8          C  0.53883961  0.04520732  0.74507911     0.27700
C9          C  0.45976544  0.03234274  0.82723015     0.36300
C10         C  0.45985930  0.03556024  0.78251908     0.36300
C11         C  0.56399188  0.02552664  0.82330920     0.36300
C12         C  0.56443767  0.02966038  0.77856803     0.36300
C13         C  0.51064915  0.04467452  0.88843333    -0.21200
C14         C  0.53564497  0.04262284  0.88759475    -0.21200
C15         C  0.51335528  0.06103754  0.72180232    -0.21200
C16         C  0.53869679  0.05965141  0.72083700    -0.21200
C17         C  0.43249324  0.02902631  0.81972996    -0.22200
C18         C  0.43252968  0.03104040  0.79135191    -0.22200
C19         C  0.58522535  0.01982119  0.81372853    -0.22200
C20         C  0.58555436  0.02247859  0.78539680    -0.22200
C21         C  0.47081054  0.03624859  0.85464727    -0.17600
C22         C  0.55990309  0.02939834  0.85150177    -0.17600
C23         C  0.56110262  0.03895196  0.75192644    -0.17600
C24         C  0.47124787  0.04374731  0.75528796    -0.17600
H25         H  0.50364659  0.05192080  0.90613527     0.15300
H26         H  0.55154940  0.04805938  0.90451235     0.15300
H27         H  0.50657415  0.07097184  0.70596726     0.15300
H28         H  0.55506293  0.06828775  0.70407090     0.15300
H29         H  0.41500501  0.02668587  0.83336622     0.13600
H30         H  0.41511411  0.03071454  0.77882162     0.13600
H31         H  0.59984686  0.01542957  0.82596797     0.13600
H32         H  0.60063682  0.02065774  0.77158226     0.13600
H33         H  0.50604293  0.01907411  0.82642715     0.26900
H34         H  0.50654790  0.02331666  0.77794021     0.26900
N35         N  0.57107513  0.13953188  0.11764557    -0.35900
N36         N  0.53641396  0.14280054  0.16288637    -0.56500
N37         N  0.57316980  0.13234075  0.20096667    -0.35900
N38         N  0.60976307  0.13264989  0.15569514    -0.56500
C39         C  0.55468708  0.14858263  0.10415971     0.27700
C40         C  0.59327133  0.14397807  0.10024838     0.27700
C41         C  0.55745605  0.13816533  0.21902795     0.27700
C42         C  0.59586608  0.13320337  0.21533224     0.27700
C43         C  0.51767913  0.13815444  0.14133237     0.36300
C44         C  0.51914556  0.13498604  0.18596354     0.36300
C45         C  0.61723731  0.12523537  0.13168107     0.36300
C46         C  0.61839174  0.12130122  0.17633770     0.36300
C47         C  0.56679848  0.15932388  0.07793921    -0.21200
C48         C  0.59141371  0.15668668  0.07556045    -0.21200
C49         C  0.57050932  0.14319629  0.24520817    -0.21200
C50         C  0.59491507  0.14021300  0.24285132    -0.21200
C51         C  0.48881545  0.12861236  0.15077218    -0.22200
C52         C  0.48974036  0.12662886  0.17910819    -0.22200
C53         C  0.63113543  0.10958562  0.13712528    -0.22200
C54         C  0.63192924  0.10715729  0.16542153    -0.22200
C55         C  0.52632723  0.14239191  0.11321367    -0.17600
C56         C  0.61233548  0.13311925  0.10493906    -0.17600
C57         C  0.61474964  0.12404103  0.20494971    -0.17600
C58         C  0.52943801  0.13497538  0.21314110    -0.17600
H59         H  0.55802894  0.16704409  0.06181459     0.15300
H60         H  0.60536812  0.16203930  0.05726261     0.15300
H61         H  0.56257384  0.14745820  0.26418610     0.15300
H62         H  0.60949219  0.14174646  0.25969687     0.15300
H63         H  0.46904937  0.12320770  0.13850509     0.13600
H64         H  0.47072190  0.11920774  0.19298855     0.13600
H65         H  0.63945582  0.10044856  0.12230707     0.13600
H66         H  0.64101436  0.09583125  0.17662741     0.13600
H67         H  0.56406866  0.12608248  0.13551436     0.26900
H68         H  0.56578501  0.12336534  0.18119819     0.26900
O69         O  0.39515522  0.05119862  0.95368449    -0.57100
C70         C  0.34037187  0.05224380  0.01350139     0.75500
O71         O  0.43632645  0.12801480  0.01149228    -0.58300
C72         C  0.41809977  0.07040843  0.93934520     0.75500
C73         C  0.37572200  0.12354437  0.95080923     0.77900
Cd74       Cd  0.39420641  0.08964860  0.98160332     1.37500
O75         O  0.34792929  0.04092652  0.99466464    -0.57100
O76         O  0.36218890  0.09481034  0.94915654    -0.55900
C77         C  0.43805501  0.10832550  0.02539092     0.77800
O78         O  0.39848690  0.13718308  0.96717037    -0.58300
O79         O  0.35741240  0.08092074  0.01675137    -0.56700
O80         O  0.42974634  0.09837304  0.94461834    -0.56700
O81         O  0.41999165  0.08071889  0.01838418    -0.55900
O82         O  0.73621123  0.12765613  0.96484953    -0.57100
C83         C  0.66715654  0.10100838  0.02058097     0.75500
O84         O  0.65002428  0.03902441  0.95234146    -0.58300
C85         C  0.74960191  0.11595623  0.95442565     0.75500
C86         C  0.70575597  0.04169048  0.01498824     0.77900
Cd87       Cd  0.69224991  0.07867042  0.98213343     1.37500
O88         O  0.69520332  0.11674636  0.01421031    -0.57100
O89         O  0.71831913  0.06997005  0.01925715    -0.55900
C90         C  0.65137387  0.05818677  0.93512111     0.77800
O91         O  0.68537830  0.02984682  0.99620846    -0.58300
O92         O  0.65097165  0.07508205  0.00922078    -0.56700
O93         O  0.73650500  0.08737058  0.95740975    -0.56700
O94         O  0.67182188  0.08600724  0.93957128    -0.55900
N95         N  0.91091392  0.80573914  0.78094741    -0.35900
N96         N  0.94347740  0.79156507  0.82167630    -0.56500
N97         N  0.90624135  0.78947200  0.86618457    -0.35900
N98         N  0.87265756  0.80201370  0.82572477    -0.56500
C99         C  0.92507098  0.79674412  0.76415685     0.27700
C100        C  0.88699927  0.80240864  0.76645735     0.27700
C101        C  0.91996327  0.77704466  0.87911714     0.27700
C102        C  0.88108341  0.78137752  0.88098985     0.27700
C103        C  0.96066453  0.79706712  0.79893583     0.36300
C104        C  0.95891587  0.78948953  0.84325931     0.36300
C105        C  0.86173543  0.81110359  0.80510528     0.36300
C106        C  0.85951244  0.80288021  0.84931748     0.36300
C107        C  0.91081930  0.78886036  0.73839139    -0.21200
C108        C  0.88680523  0.79243062  0.73983446    -0.21200
C109        C  0.90404581  0.76197895  0.90304089    -0.21200
C110        C  0.87924374  0.76429913  0.90400418    -0.21200
C111        C  0.98727471  0.79885862  0.80611810    -0.22200
C112        C  0.98615345  0.79400438  0.83418773    -0.22200
C113        C  0.84212397  0.81849842  0.81568857    -0.22200
C114        C  0.84081864  0.81342661  0.84377992    -0.22200
C115        C  0.95042758  0.79530776  0.77144197    -0.17600
C116        C  0.86495176  0.80750532  0.77669741    -0.17600
C117        C  0.86013167  0.78957127  0.87469171    -0.17600
C118        C  0.94692786  0.77972916  0.87022159    -0.17600
H119        H  0.91670988  0.78077990  0.72052218     0.15300
H120        H  0.87066896  0.78757787  0.72327575     0.15300
H121        H  0.90949231  0.75032365  0.91822147     0.15300
H122        H  0.86192178  0.75455389  0.91997513     0.15300
H123        H  0.00498063  0.80194344  0.79233126     0.13600
H124        H  0.00288720  0.79264510  0.84623642     0.13600
H125        H  0.82899140  0.82533690  0.80415994     0.13600
H126        H  0.82647865  0.81564234  0.85826234     0.13600
H127        H  0.91819590  0.81511879  0.80062949     0.26900
H128        H  0.91491250  0.80476842  0.84960621     0.26900
N129        N  0.84498928  0.68689944  0.51284481    -0.35900
N130        N  0.88406164  0.68940947  0.46934113    -0.56500
N131        N  0.84950973  0.70226251  0.43032413    -0.35900
N132        N  0.80841272  0.69601580  0.47368954    -0.56500
C133        C  0.86185218  0.67896048  0.52720569     0.27700
C134        C  0.82202644  0.68173416  0.52955260     0.27700
C135        C  0.86579820  0.69655979  0.41289632     0.27700
C136        C  0.82683908  0.70061755  0.41520906     0.27700
C137        C  0.90140344  0.69239034  0.49155720     0.36300
C138        C  0.90263462  0.69871744  0.44707087     0.36300
C139        C  0.79737631  0.69958709  0.49750766     0.36300
C140        C  0.79966470  0.70745138  0.45325481     0.36300
C141        C  0.84906173  0.66793344  0.55318037    -0.21200
C142        C  0.82389333  0.66972656  0.55467446    -0.21200
C143        C  0.85326911  0.69103957  0.38644934    -0.21200
C144        C  0.82858384  0.69359935  0.38791623    -0.21200
C145        C  0.93085496  0.70269823  0.48324901    -0.22200
C146        C  0.93159952  0.70658569  0.45498756    -0.22200
C147        C  0.78070318  0.71241963  0.49204406    -0.22200
C148        C  0.78214622  0.71738957  0.46396087    -0.22200
C149        C  0.89100341  0.68623341  0.51925425    -0.17600
C150        C  0.80231616  0.69167179  0.52417052    -0.17600
C151        C  0.80645950  0.70805028  0.42492986    -0.17600
C152        C  0.89358891  0.69972045  0.41963123    -0.17600
H153        H  0.85793360  0.66091092  0.56983344     0.15300
H154        H  0.80949823  0.66425945  0.57266928     0.15300
H155        H  0.86157311  0.68646302  0.36789955     0.15300
H156        H  0.81402025  0.69129801  0.37073758     0.15300
H157        H  0.94992716  0.70734308  0.49619502     0.13600
H158        H  0.95135950  0.71483539  0.44186967     0.13600
H159        H  0.76903507  0.71801532  0.50675357     0.13600
H160        H  0.77176228  0.72746756  0.45277867     0.13600
H161        H  0.85194731  0.70016663  0.49497302     0.26900
H162        H  0.85623758  0.71130281  0.45013989     0.26900
O163        O  0.72476895  0.71132608  0.61812833    -0.57100
C164        C  0.67456903  0.71488332  0.67983083     0.75500
O165        O  0.77193439  0.79285750  0.67663810    -0.58300
C166        C  0.75179071  0.72770091  0.60898775     0.75500
C167        C  0.71291019  0.78540522  0.61378495     0.77900
Cd168      Cd  0.72917306  0.75166809  0.64822348     1.37500
O169        O  0.68574727  0.70308936  0.66564412    -0.57100
O170        O  0.69701311  0.75657044  0.61546412    -0.55900
C171        C  0.77236197  0.77431743  0.69344295     0.77800
O172        O  0.73722719  0.79927346  0.62820077    -0.58300
O173        O  0.68862855  0.74377399  0.67893379    -0.56700
O174        O  0.76785392  0.75475388  0.61806547    -0.56700
O175        O  0.75311220  0.74620770  0.68897097    -0.55900
O176        O  0.07093825  0.78477115  0.63381086    -0.57100
C177        C  0.00226465  0.75714598  0.68946371     0.75500
O178        O  0.98442318  0.69632292  0.61758276    -0.58300
C179        C  0.07868533  0.77269871  0.61593688     0.75500
C180        C  0.04552922  0.70436512  0.68108668     0.77900
Cd181      Cd  0.02535391  0.73605713  0.64826872     1.37500
O182        O  0.02442159  0.77596691  0.67414295    -0.57100
O183        O  0.05978409  0.73319213  0.67978783    -0.55900
C184        C  0.97934451  0.71498052  0.60603886     0.77800
O185        O  0.02108590  0.68944194  0.66685592    -0.58300
O186        O  0.99145843  0.72908364  0.68564281    -0.56700
O187        O  0.06149668  0.74395982  0.61324739    -0.56700
O188        O  0.99545176  0.74237894  0.61418635    -0.55900
N189        N  0.17189347  0.33895723  0.18094188    -0.35900
N190        N  0.21537742  0.34526163  0.13940240    -0.56500
N191        N  0.18535308  0.36120556  0.09765816    -0.35900
N192        N  0.14089991  0.35310387  0.13774136    -0.56500
C193        C  0.19364552  0.34070887  0.19786655     0.27700
C194        C  0.15385464  0.34378276  0.19698714     0.27700
C195        C  0.20545496  0.35990734  0.08142338     0.27700
C196        C  0.16649992  0.36416913  0.08056171     0.27700
C197        C  0.22860596  0.34173108  0.16199406     0.36300
C198        C  0.23436587  0.35135227  0.11792422     0.36300
C199        C  0.12427584  0.35112134  0.15983313     0.36300
C200        C  0.13080264  0.36170351  0.11595601     0.36300
C201        C  0.18806475  0.34469522  0.22504783    -0.21200
C202        C  0.16310104  0.34663404  0.22450672    -0.21200
C203        C  0.19931955  0.36205229  0.05373427    -0.21200
C204        C  0.17474252  0.36476052  0.05319903    -0.21200
C205        C  0.25538992  0.34419899  0.15454492    -0.22200
C206        C  0.25914338  0.35049242  0.12672086    -0.22200
C207        C  0.10275075  0.35739761  0.15175263    -0.22200
C208        C  0.10708949  0.36436888  0.12407114    -0.22200
C209        C  0.21996844  0.34142287  0.18974500    -0.17600
C210        C  0.13075377  0.34815361  0.18778944    -0.17600
C211        C  0.14275163  0.36753950  0.08880767    -0.17600
C212        C  0.23059870  0.35906463  0.09069857    -0.17600
H213        H  0.20138407  0.34728392  0.24336385     0.15300
H214        H  0.15374913  0.35108227  0.24235835     0.15300
H215        H  0.21153573  0.36201367  0.03575161     0.15300
H216        H  0.16425666  0.36709961  0.03474176     0.15300
H217        H  0.27148408  0.34327118  0.16804484     0.13600
H218        H  0.27849818  0.35492649  0.11462725     0.13600
H219        H  0.08646156  0.35822826  0.16472309     0.13600
H220        H  0.09453766  0.37115281  0.11152237     0.13600
H221        H  0.16929438  0.33458377  0.15979163     0.26900
H222        H  0.18692771  0.36373538  0.11904993     0.26900
N223        N  0.23684404  0.45818298  0.44629637    -0.35900
N224        N  0.27564094  0.45928741  0.48968073    -0.56500
N225        N  0.23066932  0.45269172  0.52976633    -0.35900
N226        N  0.19372774  0.45470998  0.48615328    -0.56500
C227        C  0.26168201  0.46517482  0.43149969     0.27700
C228        C  0.21912591  0.46307002  0.42962349     0.27700
C229        C  0.25389245  0.45838847  0.54666053     0.27700
C230        C  0.21159439  0.45688557  0.54472111     0.27700
C231        C  0.28718487  0.45304631  0.46770310     0.36300
C232        C  0.28368597  0.45000169  0.51240394     0.36300
C233        C  0.17686828  0.44756382  0.46275276     0.36300
C234        C  0.17394553  0.44554462  0.50746263     0.36300
C235        C  0.26003221  0.47514042  0.40520798    -0.21200
C236        C  0.23307795  0.47380647  0.40400918    -0.21200
C237        C  0.24981839  0.46667908  0.57267892    -0.21200
C238        C  0.22308073  0.46584199  0.57142496    -0.21200
C239        C  0.30332162  0.44060927  0.47650152    -0.22200
C240        C  0.30102918  0.43856939  0.50483861    -0.22200
C241        C  0.14630713  0.43437924  0.46917492    -0.22200
C242        C  0.14444568  0.43307638  0.49759798    -0.22200
C243        C  0.28298036  0.45811980  0.43974925    -0.17600
C244        C  0.18895853  0.45387539  0.43571210    -0.17600
C245        C  0.18250037  0.44924662  0.53568231    -0.17600
C246        C  0.27621528  0.45235432  0.53995600    -0.17600
H247        H  0.27586995  0.48127868  0.38826338     0.15300
H248        H  0.22408212  0.47876549  0.38593910     0.15300
H249        H  0.26404082  0.47170054  0.59089055     0.15300
H250        H  0.21264884  0.47011811  0.58849513     0.15300
H251        H  0.31492189  0.43311870  0.46381296     0.13600
H252        H  0.31058204  0.42915878  0.51823699     0.13600
H253        H  0.12734330  0.42642188  0.45489306     0.13600
H254        H  0.12374320  0.42380026  0.50958784     0.13600
H255        H  0.22978725  0.44570451  0.46467345     0.26900
H256        H  0.22569476  0.44181672  0.51070238     0.26900
O257        O  0.05329775  0.36849602  0.28001308    -0.57100
C258        C  0.00324528  0.37604305  0.34083663     0.75500
O259        O  0.09750664  0.44674809  0.33806759    -0.58300
C260        C  0.07828764  0.38696367  0.26772664     0.75500
C261        C  0.04129555  0.44478505  0.27450592     0.77900
Cd262      Cd  0.05598925  0.40913451  0.30757970     1.37500
O263        O  0.00931683  0.36235878  0.32314884    -0.57100
O264        O  0.02413601  0.41590396  0.27569180    -0.55900
C265        C  0.10205777  0.42736106  0.34876216     0.77800
O266        O  0.06581137  0.45747319  0.28863655    -0.58300
O267        O  0.02173367  0.40471610  0.34276095    -0.56700
O268        O  0.09158456  0.41495461  0.27370405    -0.56700
O269        O  0.08494644  0.40007746  0.34048766    -0.55900
O270        O  0.40227004  0.45438324  0.28893356    -0.57100
C271        C  0.33945702  0.42735174  0.35530531     0.75500
O272        O  0.31857970  0.36303066  0.28833323    -0.58300
C273        C  0.41468151  0.44214099  0.27749713     0.75500
C274        C  0.38632689  0.37780096  0.34630641     0.77900
Cd275      Cd  0.36322671  0.40684611  0.31334001     1.37500
O276        O  0.36526357  0.44592624  0.34431866    -0.57100
O277        O  0.39831046  0.40638996  0.34672352    -0.55900
C278        C  0.31494870  0.38035515  0.27258906     0.77800
O279        O  0.36320245  0.36238463  0.33056565    -0.58300
O280        O  0.32543452  0.40001702  0.34693020    -0.56700
O281        O  0.40281611  0.41401109  0.28233214    -0.56700
O282        O  0.33371701  0.40880502  0.27583465    -0.55900
N283        N  0.89979266  0.21765664  0.78539857    -0.35900
N284        N  0.85799332  0.18037394  0.82928436    -0.56500
N285        N  0.89997666  0.22702886  0.86841676    -0.35900
N286        N  0.94357335  0.26250432  0.82463424    -0.56500
C287        C  0.87935552  0.19221319  0.77120918     0.27700
C288        C  0.92427996  0.23461754  0.76882249     0.27700
C289        C  0.88049425  0.20439902  0.88594804     0.27700
C290        C  0.92469051  0.24761516  0.88343542     0.27700
C291        C  0.83917423  0.16710703  0.80725222     0.36300
C292        C  0.83983158  0.17135346  0.85180834     0.36300
C293        C  0.95525199  0.27833268  0.80071395     0.36300
C294        C  0.95518954  0.28342307  0.84518149     0.36300
C295        C  0.89112268  0.19271349  0.74540845    -0.21200
C296        C  0.91961991  0.21950932  0.74393483    -0.21200
C297        C  0.89305971  0.21048369  0.91240134    -0.21200
C298        C  0.92104564  0.23783237  0.91081031    -0.21200
C299        C  0.80903003  0.14885550  0.81584630    -0.22200
C300        C  0.80944162  0.15150844  0.84415309    -0.22200
C301        C  0.97494415  0.30930287  0.80617828    -0.22200
C302        C  0.97491132  0.31251591  0.83436560    -0.22200
C303        C  0.84895677  0.17096878  0.77951235    -0.17600
C304        C  0.94827094  0.26519512  0.77399520    -0.17600
C305        C  0.94863211  0.27649220  0.87364934    -0.17600
C306        C  0.85040082  0.18036704  0.87925700    -0.17600
H307        H  0.87982099  0.17610159  0.72897189     0.15300
H308        H  0.93457085  0.22768502  0.72609049     0.15300
H309        H  0.88270747  0.19708056  0.93105063     0.15300
H310        H  0.93652907  0.24965351  0.92799709     0.15300
H311        H  0.78885058  0.13526179  0.80305929     0.13600
H312        H  0.78959098  0.14044023  0.85749475     0.13600
H313        H  0.98757110  0.32779742  0.79142185     0.13600
H314        H  0.98755495  0.33391439  0.84553009     0.13600
H315        H  0.89503496  0.22546149  0.80306437     0.26900
H316        H  0.89468432  0.23062073  0.84855816     0.26900
N317        N  0.85334609  0.26902395  0.51130142    -0.35900
N318        N  0.89497252  0.31106317  0.46933699    -0.56500
N319        N  0.85955201  0.26271557  0.42880834    -0.35900
N320        N  0.81641629  0.22262984  0.47061808    -0.56500
C321        C  0.87065853  0.29467556  0.52638002     0.27700
C322        C  0.82877720  0.24927144  0.52684877     0.27700
C323        C  0.87753139  0.28701270  0.41223987     0.27700
C324        C  0.83669535  0.24099048  0.41278920     0.27700
C325        C  0.91193659  0.32522852  0.49220301     0.36300
C326        C  0.91446946  0.32249303  0.44768928     0.36300
C327        C  0.80427240  0.20578790  0.49390658     0.36300
C328        C  0.80784544  0.20255852  0.44967016     0.36300
C329        C  0.85680956  0.29145920  0.55169551    -0.21200
C330        C  0.83018037  0.26280508  0.55192305    -0.21200
C331        C  0.86594438  0.28079188  0.38540187    -0.21200
C332        C  0.84003795  0.25166285  0.38575979    -0.21200
C333        C  0.94203404  0.34663064  0.48494664    -0.22200
C334        C  0.94364847  0.34492117  0.45668384    -0.22200
C335        C  0.78747608  0.17484439  0.48768580    -0.22200
C336        C  0.78972181  0.17280103  0.45955448    -0.22200
C337        C  0.90065528  0.31866353  0.51958375    -0.17600
C338        C  0.80769245  0.21810862  0.52058624    -0.17600
C339        C  0.81459601  0.21095740  0.42154207    -0.17600
C340        C  0.90619661  0.31275335  0.41995943    -0.17600
H341        H  0.86566171  0.30760962  0.56864897     0.15300
H342        H  0.81446391  0.25250697  0.56914261     0.15300
H343        H  0.87573361  0.29539064  0.36729846     0.15300
H344        H  0.82579373  0.23943349  0.36800362     0.15300
H345        H  0.96097001  0.36150067  0.49861599     0.13600
H346        H  0.96414449  0.35815466  0.44433776     0.13600
H347        H  0.77504022  0.15574459  0.50190334     0.13600
H348        H  0.77925038  0.15185431  0.44773712     0.13600
H349        H  0.86066105  0.26345461  0.49384973     0.26900
H350        H  0.86522218  0.25946630  0.44862211     0.26900
O351        O  0.75010775  0.08523546  0.68352699    -0.57100
C352        C  0.69641669  0.02937632  0.61996652     0.75500
O353        O  0.67557363  0.09391524  0.66545088    -0.58300
C354        C  0.75683931  0.11023094  0.69430444     0.75500
C355        C  0.74200414  0.12938458  0.60727169     0.77900
Cd356      Cd  0.71335575  0.08372092  0.64981811     1.37500
O357        O  0.71899294  0.04159746  0.63656418    -0.57100
O358        O  0.75579524  0.11975221  0.62090679    -0.55900
C359        C  0.65985968  0.06907212  0.67887540     0.77800
O360        O  0.71407747  0.11736766  0.61302519    -0.58300
O361        O  0.68191859  0.04220830  0.61776887    -0.56700
O362        O  0.74264948  0.12168159  0.68499555    -0.56700
O363        O  0.66859905  0.05088786  0.67818464    -0.55900
O364        O  0.07988873  0.40260311  0.63275109    -0.57100
C365        C  0.01053461  0.35722745  0.68935141     0.75500
O366        O  0.03407933  0.44767530  0.66546549    -0.58300
C367        C  0.08767386  0.42224392  0.61355337     0.75500
C368        C  0.98955221  0.37667779  0.60776487     0.77900
Cd369      Cd  0.03702039  0.40502220  0.64873049     1.37500
O370        O  0.03657479  0.36662470  0.67926689    -0.57100
O371        O  0.00218643  0.36400995  0.61805298    -0.55900
C372        C  0.05769834  0.45895077  0.68071784     0.77800
O373        O  0.99884074  0.40316079  0.61672357    -0.58300
O374        O  0.99792601  0.37080134  0.68128330    -0.56700
O375        O  0.07215726  0.43395480  0.61114771    -0.56700
O376        O  0.07103213  0.44489499  0.68129773    -0.55900
N377        N  0.58075073  0.54833062  0.11559675    -0.35900
N378        N  0.53468098  0.51154559  0.15778907    -0.56500
N379        N  0.57219226  0.55379321  0.20087089    -0.35900
N380        N  0.61803279  0.59141832  0.15918795    -0.56500
C381        C  0.55572162  0.53045696  0.09963560     0.27700
C382        C  0.60030915  0.57338897  0.10027393     0.27700
C383        C  0.54532227  0.53704399  0.21455551     0.27700
C384        C  0.59015065  0.57961787  0.21557935     0.27700
C385        C  0.52202189  0.49287842  0.13576356     0.36300
C386        C  0.51719130  0.49569869  0.17984857     0.36300
C387        C  0.63731490  0.60515236  0.13760786     0.36300
C388        C  0.63326516  0.60776542  0.18196672     0.36300
C389        C  0.56000655  0.54361239  0.07354732    -0.21200
C390        C  0.58816452  0.57066601  0.07392304    -0.21200
C391        C  0.54677758  0.55172157  0.23887075    -0.21200
C392        C  0.57504996  0.57856336  0.23954596    -0.21200
C393        C  0.49680088  0.46478767  0.14394137    -0.22200
C394        C  0.49365081  0.46661776  0.17189295    -0.22200
C395        C  0.66512646  0.62999592  0.14677118    -0.22200
C396        C  0.66254614  0.63169392  0.17486786    -0.22200
C397        C  0.52882190  0.50286791  0.10803724    -0.17600
C398        C  0.62845706  0.59910456  0.10949397    -0.17600
C399        C  0.61979711  0.60418057  0.20816980    -0.17600
C400        C  0.51972585  0.50854132  0.20606868    -0.17600
H401        H  0.54421024  0.53499738  0.05618975     0.15300
H402        H  0.59814914  0.58687241  0.05690551     0.15300
H403        H  0.52928066  0.54400712  0.25452467     0.15300
H404        H  0.58336511  0.59544592  0.25584768     0.15300
H405        H  0.48121896  0.44566860  0.13079942     0.13600
H406        H  0.47527785  0.44904967  0.18457895     0.13600
H407        H  0.68461940  0.64620709  0.13427591     0.13600
H408        H  0.67973970  0.64943741  0.18828065     0.13600
H409        H  0.58478282  0.54305002  0.13533632     0.26900
H410        H  0.57879499  0.54708566  0.18363079     0.26900
N411        N  0.52064299  0.60858671  0.84740098    -0.35900
N412        N  0.56450581  0.64586789  0.80517305    -0.56500
N413        N  0.52529099  0.59824607  0.76540337    -0.35900
N414        N  0.48011304  0.56241879  0.80787984    -0.56500
C415        C  0.53949548  0.63461449  0.86153608     0.27700
C416        C  0.49554669  0.59114140  0.86310333     0.27700
C417        C  0.54501541  0.62144344  0.74843002     0.27700
C418        C  0.50097460  0.57787807  0.74983733     0.27700
C419        C  0.58205651  0.65854422  0.82801661     0.36300
C420        C  0.58396971  0.65358369  0.78384046     0.36300
C421        C  0.46788242  0.54658389  0.83167557     0.36300
C422        C  0.46963095  0.54153944  0.78738524     0.36300
C423        C  0.52594031  0.63410013  0.88629589    -0.21200
C424        C  0.49807359  0.60653804  0.88729202    -0.21200
C425        C  0.53304311  0.61591023  0.72176362    -0.21200
C426        C  0.50516354  0.58831089  0.72264861    -0.21200
C427        C  0.61278607  0.67483304  0.82113664    -0.22200
C428        C  0.61400159  0.67174092  0.79301574    -0.22200
C429        C  0.44903430  0.51552496  0.82621816    -0.22200
C430        C  0.45002689  0.51234280  0.79805200    -0.22200
C431        C  0.57045675  0.65567367  0.85490984    -0.17600
C432        C  0.47323905  0.56001930  0.85813080    -0.17600
C433        C  0.47684700  0.54880099  0.75908133    -0.17600
C434        C  0.57476243  0.64561751  0.75601469    -0.17600
H435        H  0.53590686  0.65101313  0.90261620     0.15300
H436        H  0.48225830  0.59804125  0.90450849     0.15300
H437        H  0.54367920  0.62988449  0.70345706     0.15300
H438        H  0.49006501  0.57683124  0.70515398     0.15300
H439        H  0.63224808  0.68741513  0.83492757     0.13600
H440        H  0.63459021  0.68149167  0.78076185     0.13600
H441        H  0.43606216  0.49708005  0.84095235     0.13600
H442        H  0.43800963  0.49099117  0.78677547     0.13600
H443        H  0.52703945  0.60073477  0.83088717     0.26900
H444        H  0.53015636  0.59440360  0.78536703     0.26900
O445        O  0.70735095  0.69493631  0.00823278    -0.57100
C446        C  0.75948532  0.75014879  0.94877001     0.75500
O447        O  0.67594626  0.74108011  0.94756130    -0.58300
C448        C  0.68969642  0.69373060  0.02667503     0.75500
C449        C  0.72383931  0.79259295  0.00645408     0.77900
Cd450      Cd  0.70891438  0.73681788  0.98188759     1.37500
O451        O  0.73217293  0.73261472  0.94066714    -0.57100
O452        O  0.74400461  0.78675585  0.00281138    -0.55900
C453        C  0.66032919  0.71272068  0.94218205     0.77800
O454        O  0.69740436  0.77343568  0.99690166    -0.58300
O455        O  0.76341149  0.76074407  0.97303201    -0.56700
O456        O  0.68260026  0.71309616  0.02458140    -0.56700
O457        O  0.66696514  0.69636050  0.95579601    -0.55900
O458        O  0.38955140  0.38076094  0.96866575    -0.57100
C459        C  0.43064978  0.44561310  0.02831314     0.75500
O460        O  0.38536188  0.45971739  0.95329138    -0.58300
C461        C  0.36854110  0.37180952  0.95065355     0.75500
C462        C  0.33226844  0.40114378  0.01717704     0.77900
Cd463      Cd  0.38590105  0.42289561  0.98530246     1.37500
O464        O  0.42633879  0.42433073  0.01254237    -0.57100
O465        O  0.34368328  0.38554437  0.01367842    -0.55900
C466        C  0.41305542  0.47224200  0.94630100     0.77800
O467        O  0.34577323  0.42722907  0.00557451    -0.58300
O468        O  0.41362959  0.45545455  0.02439144    -0.56700
O469        O  0.35641725  0.38698616  0.94862316    -0.56700
O470        O  0.42745853  0.46195893  0.95768911    -0.55900
N471        N  0.75477271  0.93441276  0.17500080    -0.35900
N472        N  0.74501346  0.96931750  0.13407394    -0.56500
N473        N  0.74405463  0.93053162  0.09116970    -0.35900
N474        N  0.75756117  0.89764761  0.13211334    -0.56500
C475        C  0.75801782  0.95696103  0.19116268     0.27700
C476        C  0.76392150  0.91897364  0.19010731     0.27700
C477        C  0.74392253  0.95185898  0.07527577     0.27700
C478        C  0.75002009  0.91404168  0.07431807     0.27700
C479        C  0.73933001  0.97944555  0.15736739     0.36300
C480        C  0.73431138  0.97780116  0.11277110     0.36300
C481        C  0.75528029  0.88085443  0.15458250     0.36300
C482        C  0.75025631  0.87924904  0.10992130     0.36300
C483        C  0.76976192  0.95612512  0.21680747    -0.21200
C484        C  0.77338643  0.93202041  0.21617166    -0.21200
C485        C  0.74982401  0.94885666  0.04792864    -0.21200
C486        C  0.75356150  0.92485139  0.04730107    -0.21200
C487        C  0.72553652  0.99496772  0.15079419    -0.22200
C488        C  0.72240257  0.99396801  0.12250807    -0.22200
C489        C  0.74767819  0.85212897  0.14653958    -0.22200
C490        C  0.74457915  0.85113460  0.11821011    -0.22200
C491        C  0.74723110  0.97572657  0.18446532    -0.17600
C492        C  0.75962232  0.89094971  0.18232409    -0.17600
C493        C  0.74892217  0.88747961  0.08219433    -0.17600
C494        C  0.73620895  0.97224789  0.08452208    -0.17600
H495        H  0.77408805  0.97059062  0.23450007     0.15300
H496        H  0.78100456  0.92424564  0.23327317     0.15300
H497        H  0.75053435  0.96203483  0.03016843     0.15300
H498        H  0.75765803  0.91588254  0.02894133     0.15300
H499        H  0.71839148  0.00582449  0.16489291     0.13600
H500        H  0.71231409  0.00384192  0.11051123     0.13600
H501        H  0.74432521  0.83367972  0.15972499     0.13600
H502        H  0.73833591  0.83172683  0.10525676     0.13600
H503        H  0.74224717  0.92680606  0.15677966     0.26900
H504        H  0.73628968  0.92470469  0.11134927     0.26900
N505        N  0.65878455  0.88500824  0.44963215    -0.35900
N506        N  0.65843893  0.92342018  0.49293416    -0.56500
N507        N  0.67114167  0.88973485  0.53285928    -0.35900
N508        N  0.66790162  0.84947814  0.48955073    -0.56500
C509        C  0.65046583  0.90134886  0.43494659     0.27700
C510        C  0.65414262  0.86202706  0.43321210     0.27700
C511        C  0.66527216  0.90609032  0.55008899     0.27700
C512        C  0.67062069  0.86780974  0.54827831     0.27700
C513        C  0.66276678  0.94085205  0.47033416     0.36300
C514        C  0.66751459  0.94227016  0.51503612     0.36300
C515        C  0.67208263  0.83829497  0.46613144     0.36300
C516        C  0.67892701  0.84100603  0.51054055     0.36300
C517        C  0.63993153  0.88834782  0.40896933    -0.21200
C518        C  0.64229363  0.86349797  0.40786047    -0.21200
C519        C  0.66072937  0.89426847  0.57678751    -0.21200
C520        C  0.66422015  0.87012078  0.57565967    -0.21200
C521        C  0.67389486  0.97063177  0.47817336    -0.22200
C522        C  0.67680682  0.97150843  0.50650993    -0.22200
C523        C  0.68492370  0.82179931  0.47235764    -0.22200
C524        C  0.68929078  0.82353883  0.50055101    -0.22200
C525        C  0.65698539  0.93029015  0.44268231    -0.17600
C526        C  0.66409448  0.84246478  0.43923460    -0.17600
C527        C  0.67858109  0.84771580  0.53874703    -0.17600
C528        C  0.66751462  0.93343389  0.54284510    -0.17600
H529        H  0.63274942  0.89682635  0.39210100     0.15300
H530        H  0.63717322  0.84901542  0.39000449     0.15300
H531        H  0.65635180  0.90278466  0.59530491     0.15300
H532        H  0.66297199  0.85633504  0.59312666     0.15300
H533        H  0.67986371  0.98989014  0.46485499     0.13600
H534        H  0.68554851  0.99159583  0.51927722     0.13600
H535        H  0.69070615  0.80991124  0.45809210     0.13600
H536        H  0.69907512  0.81321585  0.51231974     0.13600
H537        H  0.67185260  0.89241180  0.46760787     0.26900
H538        H  0.67954447  0.89598698  0.51282612     0.26900
O539        O  0.67312815  0.75941201  0.34334833    -0.57100
C540        C  0.67870011  0.70489361  0.28384248     0.75500
O541        O  0.75056974  0.80081042  0.28290635    -0.58300
C542        C  0.69208949  0.78525706  0.35408719     0.75500
C543        C  0.74496525  0.74344227  0.34968054     0.77900
Cd544      Cd  0.71222354  0.75980962  0.31461599     1.37500
O545        O  0.66527571  0.71599624  0.29543058    -0.57100
O546        O  0.71618206  0.72995003  0.35043891    -0.55900
C547        C  0.73061212  0.80295469  0.26994792     0.77800
O548        O  0.75922407  0.76574955  0.33279763    -0.58300
O549        O  0.70725681  0.71869128  0.28745322    -0.56700
O550        O  0.71970175  0.79819267  0.34677724    -0.56700
O551        O  0.70324640  0.78492600  0.27759097    -0.55900
O552        O  0.73987315  0.06135928  0.27826594    -0.57100
C553        C  0.74340562  0.11384932  0.34348936     0.75500
O554        O  0.65753317  0.05779272  0.29295267    -0.58300
C555        C  0.72041994  0.03511714  0.26852103     0.75500
C556        C  0.68473236  0.01671241  0.35388340     0.77900
Cd557      Cd  0.70392355  0.06150789  0.31050496     1.37500
O558        O  0.75438260  0.10405517  0.32647469    -0.57100
O559        O  0.71010983  0.02927695  0.34158445    -0.55900
C560        C  0.67219360  0.08150118  0.27771698     0.77800
O561        O  0.66694460  0.02472052  0.34591866    -0.58300
O562        O  0.71456805  0.09955921  0.34447845    -0.56700
O563        O  0.69349928  0.02177447  0.27796009    -0.56700
O564        O  0.70100137  0.09530036  0.27796625    -0.55900
N565        N  0.11526618  0.61560069  0.84451418    -0.35900
N566        N  0.11115363  0.57414344  0.80259791    -0.56500
N567        N  0.09422797  0.60523056  0.76280515    -0.35900
N568        N  0.10234437  0.64891324  0.80453817    -0.56500
C569        C  0.12458880  0.60002050  0.85914211     0.27700
C570        C  0.12159968  0.63983457  0.85996618     0.27700
C571        C  0.09836169  0.58751239  0.74572340     0.27700
C572        C  0.09307568  0.62589170  0.74677046     0.27700
C573        C  0.10928424  0.55822941  0.82563420     0.36300
C574        C  0.10022407  0.55393676  0.78147407     0.36300
C575        C  0.09956374  0.66076396  0.82826015     0.36300
C576        C  0.08850750  0.65528229  0.78438688     0.36300
C577        C  0.13767718  0.61486393  0.88395192    -0.21200
C578        C  0.13600591  0.64018171  0.88439246    -0.21200
C579        C  0.10006227  0.59712885  0.71849299    -0.21200
C580        C  0.09669655  0.62138042  0.71915138    -0.21200
C581        C  0.09818711  0.52816034  0.81893478    -0.22200
C582        C  0.09258892  0.52547126  0.79093003    -0.22200
C583        C  0.08457893  0.67539298  0.82294763    -0.22200
C584        C  0.07772300  0.67204600  0.79513428    -0.22200
C585        C  0.11673841  0.57029263  0.85276209    -0.17600
C586        C  0.11012750  0.65832703  0.85468547    -0.17600
C587        C  0.08612059  0.64680834  0.75625270    -0.17600
C588        C  0.09671408  0.56065325  0.75377466    -0.17600
H589        H  0.14609343  0.60732667  0.90057365     0.15300
H590        H  0.14284249  0.65596390  0.90149194     0.15300
H591        H  0.10246306  0.58705192  0.70000819     0.15300
H592        H  0.09615748  0.63374835  0.70127776     0.15300
H593        H  0.09393882  0.50987029  0.83282512     0.13600
H594        H  0.08304158  0.50464151  0.77908736     0.13600
H595        H  0.07869162  0.68687035  0.83758724     0.13600
H596        H  0.06565962  0.68049373  0.78419258     0.13600
H597        H  0.10034667  0.60698584  0.82778478     0.26900
H598        H  0.08796974  0.60054868  0.78349166     0.26900
O599        O  0.09438053  0.77455257  0.99683678    -0.57100
C600        C  0.07489749  0.70966567  0.93960039     0.75500
O601        O  0.00592134  0.68613941  0.00309829    -0.58300
C602        C  0.08078297  0.78421507  0.01052402     0.75500
C603        C  0.01222097  0.74529214  0.94195540     0.77900
Cd604      Cd  0.04741379  0.73071049  0.97685744     1.37500
O605        O  0.08887831  0.73760083  0.94619302    -0.57100
O606        O  0.04079951  0.76306742  0.94515087    -0.55900
C607        C  0.02354112  0.68767727  0.02217143     0.77800
O608        O  0.99942951  0.71981167  0.95457314    -0.58300
O609        O  0.04886429  0.69211424  0.95036246    -0.56700
O610        O  0.05197977  0.76928863  0.00801395    -0.56700
O611        O  0.05151976  0.70876559  0.01988048    -0.55900
N612        N  0.98963640  0.54995821  0.11242023    -0.35900
N613        N  0.98973822  0.58709822  0.15686860    -0.56500
N614        N  0.99721112  0.55082939  0.19832422    -0.35900
N615        N  0.99837659  0.51450993  0.15405093    -0.56500
C616        C  0.99488323  0.57470614  0.09799003     0.27700
C617        C  0.99952743  0.53596075  0.09647759     0.27700
C618        C  0.00318079  0.57477331  0.21407354     0.27700
C619        C  0.00726123  0.53562688  0.21260857     0.27700
C620        C  0.98374776  0.59968024  0.13528239     0.36300
C621        C  0.98761829  0.60010249  0.18004326     0.36300
C622        C  0.99562177  0.49850676  0.13115909     0.36300
C623        C  0.99917139  0.49860350  0.17588357     0.36300
C624        C  0.00740659  0.57583896  0.07237961    -0.21200
C625        C  0.01020280  0.55134748  0.07139421    -0.21200
C626        C  0.01605051  0.57405520  0.23912014    -0.21200
C627        C  0.01854674  0.54932044  0.23822477    -0.21200
C628        C  0.97713476  0.62028861  0.14478901    -0.22200
C629        C  0.97971370  0.62066308  0.17314709    -0.22200
C630        C  0.99422181  0.47211386  0.13845583    -0.22200
C631        C  0.99663162  0.47224113  0.16677158    -0.22200
C632        C  0.98903792  0.59656984  0.10724107    -0.17600
C633        C  0.99932534  0.50969968  0.10380808    -0.17600
C634        C  0.00597902  0.50937769  0.20344133    -0.17600
C635        C  0.99696897  0.59704520  0.20675407    -0.17600
H636        H  0.01442709  0.59288145  0.05618884     0.15300
H637        H  0.01965504  0.54589176  0.05431973     0.15300
H638        H  0.02300469  0.58974602  0.25630733     0.15300
H639        H  0.02779546  0.54237844  0.25458590     0.15300
H640        H  0.97249471  0.63469602  0.13248132     0.13600
H641        H  0.97737079  0.63540806  0.18697607     0.13600
H642        H  0.99312074  0.45530162  0.12470716     0.13600
H643        H  0.99772663  0.45546819  0.17904663     0.13600
H644        H  0.97816197  0.54194222  0.13122167     0.26900
H645        H  0.98490833  0.54395920  0.17985588     0.26900
O646        O  0.01763260  0.43468242  0.00680402    -0.57100
C647        C  0.01895896  0.37829221  0.94811644     0.75500
O648        O  0.09727465  0.47146595  0.94946397    -0.58300
C649        C  0.03666777  0.45601828  0.02273562     0.75500
C650        C  0.08826490  0.41159432  0.01423697     0.77900
Cd651      Cd  0.05673272  0.43185252  0.98112905     1.37500
O652        O  0.00730229  0.38700907  0.96551225    -0.57100
O653        O  0.05944125  0.39614908  0.01187600    -0.55900
C654        C  0.08045185  0.47994317  0.93985415     0.77800
O655        O  0.10288407  0.43687225  0.00118410    -0.58300
O656        O  0.04781078  0.39447574  0.94621365    -0.56700
O657        O  0.06439961  0.46508394  0.01977650    -0.56700
O658        O  0.05355417  0.46599729  0.94921479    -0.55900
N659        N  0.18920070  0.93474442  0.18151245    -0.35900
N660        N  0.14766687  0.89309135  0.13854940    -0.56500
N661        N  0.19301107  0.93229608  0.09792810    -0.35900
N662        N  0.23273851  0.97565328  0.14074187    -0.56500
C663        C  0.16324447  0.91679780  0.19607604     0.27700
C664        C  0.20818700  0.95939648  0.19736021     0.27700
C665        C  0.16957836  0.91259655  0.08119836     0.27700
C666        C  0.21320240  0.95655639  0.08222984     0.27700
C667        C  0.13446030  0.87555517  0.16132597     0.36300
C668        C  0.13714818  0.87378424  0.11675101     0.36300
C669        C  0.25043857  0.98659343  0.16374703     0.36300
C670        C  0.25204928  0.98579909  0.11899931     0.36300
C671        C  0.16558614  0.93029001  0.22141961    -0.21200
C672        C  0.19402804  0.95726255  0.22222410    -0.21200
C673        C  0.17473651  0.92451323  0.05452505    -0.21200
C674        C  0.20223461  0.95245348  0.05521084    -0.21200
C675        C  0.11486545  0.84511141  0.15391784    -0.22200
C676        C  0.11657460  0.84399286  0.12561620    -0.22200
C677        C  0.28109084  0.00398761  0.15660777    -0.22200
C678        C  0.28211633  0.00357694  0.12818774    -0.22200
C679        C  0.13958498  0.88676949  0.18868017    -0.17600
C680        C  0.23902509  0.98181212  0.19099969    -0.17600
C681        C  0.24281352  0.98013423  0.09091398    -0.17600
C682        C  0.14550917  0.88286255  0.08889702    -0.17600
H683        H  0.14893964  0.92107354  0.23798178     0.15300
H684        H  0.20358321  0.97301626  0.23946045     0.15300
H685        H  0.16058182  0.91379186  0.03634361     0.15300
H686        H  0.21347281  0.96743129  0.03757424     0.15300
H687        H  0.10107496  0.82567232  0.16748821     0.13600
H688        H  0.10436307  0.82354240  0.11307966     0.13600
H689        H  0.30065691  0.01561754  0.17040089     0.13600
H690        H  0.30265651  0.01481180  0.11573561     0.13600
H691        H  0.19541257  0.92810541  0.16393573     0.26900
H692        H  0.19724166  0.92732070  0.11767029     0.26900
N693        N  0.23161534  0.88359410  0.44967850    -0.35900
N694        N  0.18936102  0.84183416  0.49105148    -0.56500
N695        N  0.22728980  0.88780156  0.53271122    -0.35900
N696        N  0.27105649  0.92776717  0.49160383    -0.56500
C697        C  0.21345743  0.85853055  0.43405468     0.27700
C698        C  0.25642764  0.90319983  0.43433459     0.27700
C699        C  0.20830364  0.86334038  0.54868124     0.27700
C700        C  0.25100876  0.90788467  0.54894603     0.27700
C701        C  0.17190762  0.82897879  0.46816351     0.36300
C702        C  0.16991586  0.83136445  0.51270190     0.36300
C703        C  0.28280264  0.94530509  0.46864889     0.36300
C704        C  0.28062732  0.94725242  0.51318231     0.36300
C705        C  0.22709552  0.86197367  0.40856828    -0.21200
C706        C  0.25432975  0.89023542  0.40875675    -0.21200
C707        C  0.22017330  0.86767131  0.57532499    -0.21200
C708        C  0.24732020  0.89590162  0.57546976    -0.21200
C709        C  0.14141194  0.80950795  0.47538196    -0.22200
C710        C  0.14013526  0.81107905  0.50365379    -0.22200
C711        C  0.30046001  0.97603100  0.47570767    -0.22200
C712        C  0.29903334  0.97726121  0.50400827    -0.22200
C713        C  0.18316553  0.83496972  0.44080397    -0.17600
C714        C  0.27843707  0.93389425  0.44146776    -0.17600
C715        C  0.27369093  0.93802948  0.54111758    -0.17600
C716        C  0.17887619  0.83928109  0.54061210    -0.17600
H717        H  0.21774944  0.84629557  0.39126411     0.15300
H718        H  0.27010542  0.90064967  0.39159286     0.15300
H719        H  0.20980882  0.85250261  0.59300229     0.15300
H720        H  0.26206659  0.90686774  0.59327643     0.15300
H721        H  0.12202024  0.79604346  0.46170728     0.13600
H722        H  0.11956122  0.79899677  0.51603928     0.13600
H723        H  0.31287998  0.99554388  0.46191506     0.13600
H724        H  0.31007743  0.99787290  0.51634948     0.13600
H725        H  0.22500933  0.88921603  0.46761832     0.26900
H726        H  0.22180371  0.89254176  0.51339510     0.26900
O727        O  0.99991217  0.75141243  0.32494395    -0.57100
C728        C  0.07115750  0.79434338  0.27171698     0.75500
O729        O  0.07816840  0.74759080  0.34902836    -0.58300
C730        C  0.98903279  0.72983692  0.34262487     0.75500
C731        C  0.02726805  0.69494656  0.28166066     0.77900
Cd732      Cd  0.04359672  0.74790611  0.31344726     1.37500
O733        O  0.04666722  0.78815437  0.28316407    -0.57100
O734        O  0.00879266  0.70297550  0.28526323    -0.55900
C735        C  0.08948294  0.77498142  0.35646837     0.77800
O736        O  0.05321892  0.71112276  0.29321545    -0.58300
O737        O  0.08123488  0.77821683  0.27889040    -0.56700
O738        O  0.00356787  0.71722730  0.34650348    -0.56700
O739        O  0.07865288  0.78868275  0.34469701    -0.55900
O740        O  0.37287011  0.11947214  0.33325586    -0.57100
C741        C  0.33034931  0.04788543  0.27630798     0.75500
O742        O  0.41801229  0.07226519  0.30335139    -0.58300
C743        C  0.39335787  0.12888971  0.35187856     0.75500
C744        C  0.34680267  0.02944027  0.36069835     0.77900
Cd745      Cd  0.37601559  0.07640145  0.31924252     1.37500
O746        O  0.33777395  0.07356141  0.28600428    -0.57100
O747        O  0.33481328  0.04272767  0.35032235    -0.55900
C748        C  0.43090102  0.09674648  0.28913733     0.77800
O749        O  0.37344426  0.03856485  0.35237575    -0.58300
O750        O  0.34494666  0.03685151  0.28562527    -0.56700
O751        O  0.40536670  0.11373354  0.35539157    -0.56700
O752        O  0.41843163  0.11165022  0.28925154    -0.55900
N753        N  0.31939901  0.21758556  0.78498778    -0.35900
N754        N  0.32291876  0.25975817  0.82629252    -0.56500
N755        N  0.33361498  0.22623140  0.86756433    -0.35900
N756        N  0.32645566  0.18207905  0.82624305    -0.56500
C757        C  0.30990910  0.23291101  0.77026120     0.27700
C758        C  0.31208123  0.19267969  0.77008247     0.27700
C759        C  0.32980606  0.24471615  0.88388409     0.27700
C760        C  0.33123405  0.20400856  0.88397131     0.27700
C761        C  0.32664034  0.27575302  0.80284806     0.36300
C762        C  0.33392105  0.28018947  0.84721532     0.36300
C763        C  0.33097650  0.17049737  0.80324304     0.36300
C764        C  0.33825987  0.17498637  0.84764552     0.36300
C765        C  0.29589069  0.21731611  0.74592441    -0.21200
C766        C  0.29729990  0.19185025  0.74580144    -0.21200
C767        C  0.32453956  0.23391725  0.91098330    -0.21200
C768        C  0.32544152  0.20814032  0.91104320    -0.21200
C769        C  0.33949482  0.30634242  0.80895673    -0.22200
C770        C  0.34395800  0.30912389  0.83714237    -0.22200
C771        C  0.34508699  0.15539278  0.81010751    -0.22200
C772        C  0.34969618  0.15821901  0.83830281    -0.22200
C773        C  0.31817486  0.26286970  0.77609497    -0.17600
C774        C  0.32212639  0.17323480  0.77623066    -0.17600
C775        C  0.33777282  0.18245843  0.87563913    -0.17600
C776        C  0.33452272  0.27284075  0.87534714    -0.17600
H777        H  0.28691131  0.22437698  0.72940486     0.15300
H778        H  0.28948967  0.17528805  0.72925455     0.15300
H779        H  0.32142106  0.24414286  0.92896214     0.15300
H780        H  0.32315895  0.19459818  0.92910421     0.15300
H781        H  0.34540675  0.32482414  0.79462486     0.13600
H782        H  0.35401710  0.33015283  0.84877089     0.13600
H783        H  0.35164291  0.14382514  0.79626338     0.13600
H784        H  0.36048335  0.14919217  0.85048567     0.13600
H785        H  0.33469045  0.22648578  0.80153723     0.26900
H786        H  0.34203851  0.23113442  0.84744813     0.26900
N787        N  0.43072690  0.27716333  0.51592167    -0.35900
N788        N  0.43377289  0.23901316  0.47450137    -0.56500
N789        N  0.42745606  0.27531345  0.43228153    -0.35900
N790        N  0.42804096  0.31548726  0.47385342    -0.56500
C791        C  0.43816500  0.26081448  0.53182123     0.27700
C792        C  0.43444732  0.30016763  0.53167165     0.27700
C793        C  0.43349709  0.25803564  0.41657560     0.27700
C794        C  0.43149692  0.29846098  0.41610713     0.27700
C795        C  0.42713225  0.22123010  0.49725267     0.36300
C796        C  0.42495589  0.22006904  0.45257212     0.36300
C797        C  0.42002601  0.32482276  0.49628107     0.36300
C798        C  0.41946492  0.32463444  0.45135782     0.36300
C799        C  0.44729385  0.27389098  0.55790636    -0.21200
C800        C  0.44494404  0.29881948  0.55781479    -0.21200
C801        C  0.44186651  0.27048946  0.39014212    -0.21200
C802        C  0.44069462  0.29614085  0.38986010    -0.21200
C803        C  0.41474917  0.19107933  0.48975123    -0.22200
C804        C  0.41339933  0.19035022  0.46137286    -0.22200
C805        C  0.40704813  0.34066014  0.48801841    -0.22200
C806        C  0.40671426  0.34056933  0.45953563    -0.22200
C807        C  0.43203167  0.23187697  0.52473496    -0.17600
C808        C  0.42470711  0.31958714  0.52411107    -0.17600
C809        C  0.42338962  0.31913064  0.42353563    -0.17600
C810        C  0.42780160  0.22940353  0.42465355    -0.17600
H811        H  0.45355656  0.26545013  0.57552222     0.15300
H812        H  0.44920433  0.31349640  0.57531808     0.15300
H813        H  0.44721548  0.26142089  0.37266633     0.15300
H814        H  0.44493503  0.31072809  0.37207702     0.15300
H815        H  0.40696632  0.17153219  0.50327812     0.13600
H816        H  0.40443577  0.17014796  0.44871543     0.13600
H817        H  0.39840334  0.35091465  0.50111124     0.13600
H818        H  0.39765088  0.35066542  0.44640271     0.13600
H819        H  0.41869738  0.26990535  0.49731925     0.26900
H820        H  0.41645351  0.26884262  0.45133998     0.26900
O821        O  0.32479557  0.04665268  0.63244202    -0.57100
C822        C  0.35073434  0.11698122  0.69005539     0.75500
O823        O  0.41984717  0.10366409  0.67043898    -0.58300
C824        C  0.33860693  0.03820551  0.61740670     0.75500
C825        C  0.39363652  0.13714476  0.60687311     0.77900
Cd826      Cd  0.37196013  0.09239741  0.64989572     1.37500
O827        O  0.33256289  0.09025759  0.68055884    -0.57100
O828        O  0.36622406  0.12178891  0.61508818    -0.55900
C829        C  0.40735649  0.07836788  0.68332416     0.77800
O830        O  0.41156197  0.13086067  0.61799830    -0.58300
O831        O  0.37793516  0.13115464  0.68136748    -0.56700
O832        O  0.36749168  0.05502554  0.61764893    -0.56700
O833        O  0.37870048  0.06022130  0.68086846    -0.55900
O834        O  0.41745981  0.44196040  0.66455269    -0.57100
C835        C  0.38796176  0.37086897  0.60810251     0.75500
O836        O  0.32856700  0.35648738  0.67847126    -0.58300
C837        C  0.40531426  0.45015356  0.68193007     0.75500
C838        C  0.33667811  0.41536517  0.61390324     0.77900
Cd839      Cd  0.36860038  0.39697217  0.64800230     1.37500
O840        O  0.40668358  0.39673580  0.61893062    -0.57100
O841        O  0.36496084  0.42661466  0.61138174    -0.55900
C842        C  0.34657944  0.34976279  0.68863863     0.77800
O843        O  0.32253344  0.39437305  0.63194012    -0.58300
O844        O  0.36031677  0.35747993  0.61551618    -0.56700
O845        O  0.37644986  0.43385734  0.68323567    -0.56700
O846        O  0.37396836  0.36539575  0.68039236    -0.55900
C847        C  0.41644434  0.33284601  0.54659599    -0.04800
C848        C  0.38971235  0.31359596  0.56182368    -0.32200
C849        C  0.38031799  0.32552289  0.58220622     0.37100
C850        C  0.39784403  0.35725134  0.58757905    -0.05100
C851        C  0.42503222  0.37631797  0.57273387    -0.32100
C852        C  0.43431533  0.36431990  0.55231468     0.37000
H853        H  0.37588214  0.28926838  0.55758555     0.17300
O854        O  0.35392804  0.30599294  0.59657962    -0.59600
H855        H  0.43883272  0.40072153  0.57654744     0.17300
O856        O  0.46049515  0.38358406  0.53762179    -0.59700
H857        H  0.47676708  0.38280652  0.54743203     0.44300
H858        H  0.36003715  0.29746537  0.61174833     0.44300
C859        C  0.40403567  0.16166298  0.58596144    -0.04800
C860        C  0.43258556  0.17456302  0.57298553    -0.32200
C861        C  0.44268448  0.19824823  0.55348703     0.37100
C862        C  0.42437941  0.20953690  0.54728841    -0.05100
C863        C  0.39619281  0.19696445  0.56039502    -0.32100
C864        C  0.38572424  0.17295938  0.57923252     0.37000
H865        H  0.44685350  0.16601819  0.57763967     0.17300
O866        O  0.46982570  0.20952593  0.53993603    -0.59600
H867        H  0.38174170  0.20519519  0.55524816     0.17300
O868        O  0.35761412  0.16098075  0.59112845    -0.59700
H869        H  0.34273248  0.14538509  0.57783313     0.44300
H870        H  0.48584755  0.22441523  0.55293292     0.44300
C871        C  0.33677872  0.32516113  0.70922774    -0.04800
C872        C  0.31235325  0.31673911  0.72720921    -0.32200
C873        C  0.30527335  0.29568769  0.74875619     0.37100
C874        C  0.32268389  0.28291196  0.75225778    -0.05100
C875        C  0.34598649  0.29016287  0.73344337    -0.32100
C876        C  0.35288720  0.31082134  0.71189912     0.37000
H877        H  0.29942364  0.32717075  0.72512649     0.17300
O878        O  0.28139052  0.28761884  0.76622116    -0.59600
H879        H  0.35924406  0.28009119  0.73580770     0.17300
O880        O  0.37570391  0.31707301  0.69374611    -0.59700
H881        H  0.36502901  0.30418232  0.67728230     0.44300
H882        H  0.28905063  0.30517289  0.77897059     0.44300
C883        C  0.34129227  0.13119529  0.71045901    -0.04800
C884        C  0.31647398  0.11289585  0.72828699    -0.32200
C885        C  0.30930771  0.12623552  0.74937761     0.37100
C886        C  0.32703574  0.15819876  0.75278623    -0.05100
C887        C  0.35073347  0.17650714  0.73413592    -0.32100
C888        C  0.35796884  0.16332294  0.71315370     0.37000
H889        H  0.30320075  0.08821087  0.72640116     0.17300
O890        O  0.28547880  0.10787738  0.76694155    -0.59600
H891        H  0.36414043  0.20118505  0.73626215     0.17300
O892        O  0.38104967  0.18211392  0.69504169    -0.59700
H893        H  0.40027860  0.18881394  0.70520727     0.44300
H894        H  0.26833135  0.10922499  0.76015540     0.44300
C895        C  0.42125590  0.20668909  0.40303546    -0.04800
C896        C  0.39284770  0.19178447  0.38952715    -0.32200
C897        C  0.38354747  0.16656741  0.37259120     0.37100
C898        C  0.40299437  0.15617103  0.36874300    -0.05100
C899        C  0.43182284  0.17168608  0.38180539    -0.32100
C900        C  0.44104454  0.19687408  0.39878251     0.37000
H901        H  0.37725845  0.19887421  0.39319547     0.17300
O902        O  0.35491048  0.15150765  0.36088981    -0.59600
H903        H  0.44712984  0.16408364  0.37908373     0.17300
O904        O  0.46879661  0.21091173  0.41210580    -0.59700
H905        H  0.48277209  0.22924054  0.40067141     0.44300
H906        H  0.34117735  0.13632039  0.37504572     0.44300
C907        C  0.28978360  0.96130376  0.56300436    -0.04800
C908        C  0.32136202  0.97570653  0.56650892    -0.32200
C909        C  0.33754285  0.00026746  0.58473921     0.37100
C910        C  0.32194957  0.01058696  0.59993078    -0.05100
C911        C  0.29004912  0.99504081  0.59728998    -0.32100
C912        C  0.27397074  0.97055727  0.57898518     0.37000
H913        H  0.33359250  0.96843273  0.55442696     0.17300
O914        O  0.36854373  0.01402347  0.58739074    -0.59600
H915        H  0.27757572  0.00244512  0.60877246     0.17300
O916        O  0.24306842  0.95694517  0.57561154    -0.59700
H917        H  0.23352486  0.94202861  0.59111373     0.44300
H918        H  0.37757666  0.02810555  0.57125025     0.44300
C919        C  0.16096910  0.81950416  0.41781151    -0.04800
C920        C  0.15124048  0.83598584  0.40341185    -0.32200
C921        C  0.12800955  0.82178522  0.38356232     0.37100
C922        C  0.11421095  0.79044869  0.37751138    -0.05100
C923        C  0.12451792  0.77408810  0.39164916    -0.32100
C924        C  0.14771623  0.78842632  0.41174761     0.37000
H925        H  0.16123597  0.85990138  0.40814163     0.17300
O926        O  0.11919144  0.83893879  0.37012244    -0.59600
H927        H  0.11436648  0.75007305  0.38735484     0.17300
O928        O  0.15666980  0.77174885  0.42585947    -0.59700
H929        H  0.17648046  0.77775171  0.41750127     0.44300
H930        H  0.10459137  0.83925122  0.38283630     0.44300
C931        C  0.29547062  0.95619201  0.41901934    -0.04800
C932        C  0.32635643  0.96750431  0.41463875    -0.32200
C933        C  0.34364651  0.99152225  0.39582130     0.37100
C934        C  0.32982697  0.00426691  0.38101171    -0.05100
C935        C  0.29876879  0.99260763  0.38556844    -0.32100
C936        C  0.28166346  0.96878957  0.40436410     0.37000
H937        H  0.33721613  0.95824487  0.42640568     0.17300
O938        O  0.37402077  0.00262396  0.39247798    -0.59600
H939        H  0.28762382  0.00209185  0.37466230     0.17300
O940        O  0.25185527  0.95899012  0.40939888    -0.59700
H941        H  0.23952710  0.94200673  0.39619345     0.44300
H942        H  0.38472315  0.01762127  0.40764800     0.44300
C943        C  0.26074100  0.99913256  0.21407236    -0.04800
C944        C  0.26735935  0.98327234  0.23323746    -0.32200
C945        C  0.28960025  0.99892915  0.25375743     0.37100
C946        C  0.30573305  0.03111425  0.25546455    -0.05100
C947        C  0.29828975  0.04693706  0.23692398    -0.32100
C948        C  0.27615948  0.03116753  0.21610411     0.37000
H949        H  0.25562924  0.95862631  0.23187745     0.17300
O950        O  0.29546446  0.98245621  0.27196799    -0.59600
H951        H  0.31020688  0.07160508  0.23807237     0.17300
O952        O  0.26959349  0.04710260  0.19790103    -0.59700
H953        H  0.28710309  0.05742161  0.18488366     0.44300
H954        H  0.28356197  0.97992040  0.28884240     0.44300
C955        C  0.08808137  0.81935444  0.25144337    -0.04800
C956        C  0.11934454  0.83154922  0.24787279    -0.32200
C957        C  0.13624204  0.85402396  0.22797100     0.37100
C958        C  0.12203352  0.86486107  0.21130057    -0.05100
C959        C  0.09096384  0.85333508  0.21507424    -0.32100
C960        C  0.07396243  0.83082247  0.23525551     0.37000
H961        H  0.13076109  0.82337508  0.26035877     0.17300
O962        O  0.16657098  0.86489711  0.22451416    -0.59600
H963        H  0.07986797  0.86144635  0.20204552     0.17300
O964        O  0.04339500  0.81916530  0.23797196    -0.59700
H965        H  0.04233221  0.83265927  0.25155255     0.44300
H966        H  0.16678173  0.85037577  0.21160195     0.44300
C967        C  0.00470816  0.62124641  0.22716870    -0.04800
C968        C  0.98186140  0.61940048  0.24363951    -0.32200
C969        C  0.98898363  0.64304678  0.26197871     0.37100
C970        C  0.01933639  0.66870519  0.26408727    -0.05100
C971        C  0.04225601  0.66998748  0.24810270    -0.32100
C972        C  0.03502204  0.64666980  0.22944725     0.37000
H973        H  0.95848097  0.59983089  0.24194456     0.17300
O974        O  0.96616986  0.64090797  0.27768114    -0.59600
H975        H  0.06565088  0.68962367  0.24936672     0.17300
O976        O  0.05765500  0.64891514  0.21336035    -0.59700
H977        H  0.05702695  0.65849529  0.19573521     0.44300
H978        H  0.96543051  0.62986627  0.29480164     0.44300
C979        C  0.00846865  0.49605442  0.08252978    -0.04800
C980        C  0.03876475  0.50418409  0.08223643    -0.32200
C981        C  0.04825715  0.49142148  0.06291741     0.37100
C982        C  0.02716328  0.46989657  0.04347905    -0.05100
C983        C  0.99678866  0.46208030  0.04369976    -0.32100
C984        C  0.98747837  0.47524277  0.06293026     0.37000
H985        H  0.05510603  0.52051114  0.09715704     0.17300
O986        O  0.07828763  0.50041839  0.06317330    -0.59600
H987        H  0.98025095  0.44588445  0.02884249     0.17300
O988        O  0.95776865  0.46724951  0.06278826    -0.59700
H989        H  0.95780330  0.48287943  0.05098034     0.44300
H990        H  0.07909308  0.48599569  0.07605171     0.44300
C991        C  0.09758733  0.81104350  0.02901837    -0.04800
C992        C  0.12857093  0.82341161  0.03498071    -0.32200
C993        C  0.14446815  0.84726663  0.05396148     0.37100
C994        C  0.12963087  0.85953928  0.06693036    -0.05100
C995        C  0.09901696  0.84795312  0.06051250    -0.32100
C996        C  0.08287171  0.82372095  0.04186515     0.37000
H997        H  0.14032758  0.81398684  0.02555924     0.17300
O998        O  0.17430281  0.85794226  0.06030915    -0.59600
H999        H  0.08743348  0.85724472  0.07054574     0.17300
O1000       O  0.05277617  0.81268567  0.03638688    -0.59700
H1001       H  0.04119797  0.79878549  0.05212776     0.44300
H1002       H  0.17322578  0.84539787  0.07636523     0.44300
C1003       C  0.99466556  0.62100205  0.08738161    -0.04800
C1004       C  0.02148159  0.65014226  0.09038365    -0.32200
C1005       C  0.03040674  0.67244993  0.06986377     0.37100
C1006       C  0.01249412  0.66572237  0.04562203    -0.05100
C1007       C  0.98471316  0.63705184  0.04335646    -0.32100
C1008       C  0.97585167  0.61464962  0.06399174     0.37000
H1009       H  0.03617484  0.65520599  0.10828663     0.17300
O1010       O  0.05719822  0.70044581  0.07341275    -0.59600
H1011       H  0.97048668  0.63150633  0.02504257     0.17300
O1012       O  0.94922460  0.58641784  0.06090248    -0.59700
H1013       H  0.95418939  0.57522632  0.04786195     0.44300
H1014       H  0.05107990  0.71360145  0.08159942     0.44300
C1015       C  0.10968199  0.54896517  0.87633188    -0.04800
C1016       C  0.08248415  0.53810791  0.89078479    -0.32200
C1017       C  0.07315410  0.51624106  0.91177148     0.37100
C1018       C  0.09111582  0.50454838  0.91869133    -0.05100
C1019       C  0.11894532  0.51615889  0.90468353    -0.32100
C1020       C  0.12817299  0.53811980  0.88345540     0.37000
H1021       H  0.06806307  0.54630214  0.88536029     0.17300
O1022       O  0.04606566  0.50611392  0.92499215    -0.59600
H1023       H  0.13324388  0.50775576  0.90975567     0.17300
O1024       O  0.15518827  0.54889455  0.86986384    -0.59700
H1025       H  0.15050440  0.53311539  0.85584765     0.44300
H1026       H  0.05141615  0.52078828  0.94031426     0.44300
C1027       C  0.10475712  0.67220928  0.87884528    -0.04800
C1028       C  0.12002506  0.70408477  0.88118541    -0.32200
C1029       C  0.11159763  0.71692042  0.90168461     0.37100
C1030       C  0.08746494  0.69768961  0.92003878    -0.05100
C1031       C  0.07353373  0.66590072  0.91850977    -0.32100
C1032       C  0.08215586  0.65317416  0.89831906     0.37000
H1033       H  0.13767181  0.71892895  0.86643005     0.17300
O1034       O  0.12637496  0.74812574  0.90293776    -0.59600
H1035       H  0.05525793  0.65066007  0.93260168     0.17300
O1036       O  0.06702135  0.62193391  0.89664486    -0.59700
H1037       H  0.07562428  0.61595790  0.91185473     0.44300
H1038       H  0.11538294  0.75331577  0.88957023     0.44300
C1039       C  0.67688613  0.99408276  0.37638527    -0.04800
C1040       C  0.65076492  0.98342091  0.39284608    -0.32200
C1041       C  0.64380321  0.96257792  0.41461767     0.37100
C1042       C  0.66301406  0.95217720  0.41999817    -0.05100
C1043       C  0.68888509  0.96264152  0.40360264    -0.32100
C1044       C  0.69583299  0.98318707  0.38191558     0.37000
H1045       H  0.63584207  0.99135079  0.38896032     0.17300
O1046       O  0.61794390  0.95196400  0.43009146    -0.59600
H1047       H  0.70379889  0.95470657  0.40766540     0.17300
O1048       O  0.72140243  0.99253109  0.36639807    -0.59700
H1049       H  0.71432782  0.97739045  0.35121067     0.44300
H1050       H  0.62385658  0.96771641  0.44449441     0.44300
C1051       C  0.68319321  0.80002896  0.37430238    -0.04800
C1052       C  0.70562570  0.82963892  0.38345856    -0.32200
C1053       C  0.69903249  0.84389187  0.40376557     0.37100
C1054       C  0.66986309  0.82839904  0.41573752    -0.05100
C1055       C  0.64694350  0.79935221  0.40608844    -0.32100
C1056       C  0.65329739  0.78527286  0.38512721     0.37000
H1057       H  0.72859003  0.84178039  0.37512796     0.17300
O1058       O  0.72158347  0.87259211  0.41258593    -0.59600
H1059       H  0.62427529  0.78752953  0.41503994     0.17300
O1060       O  0.63040633  0.75687982  0.37601730    -0.59700
H1061       H  0.62037730  0.76084932  0.36057202     0.44300
H1062       H  0.71962399  0.88687406  0.40051663     0.44300
C1063       C  0.74166847  0.99063198  0.20733382    -0.04800
C1064       C  0.76269792  0.02170951  0.21283338    -0.32200
C1065       C  0.75637133  0.03657701  0.23294252     0.37100
C1066       C  0.72840789  0.02030989  0.24748418    -0.05100
C1067       C  0.70754595  0.98906786  0.24188401    -0.32100
C1068       C  0.71404303  0.97425865  0.22200679     0.37000
H1069       H  0.78382819  0.03449552  0.20122233     0.17300
O1070       O  0.77717337  0.06716949  0.23745582    -0.59600
H1071       H  0.68602651  0.97600742  0.25288207     0.17300
O1072       O  0.69313283  0.94382210  0.21678742    -0.59700
H1073       H  0.68006490  0.94341011  0.20155817     0.44300
H1074       H  0.79171285  0.06811287  0.25138540     0.44300
C1075       C  0.75334123  0.86872330  0.20473973    -0.04800
C1076       C  0.72324961  0.85003748  0.21411572    -0.32200
C1077       C  0.71560374  0.82851171  0.23507624     0.37100
C1078       C  0.73840263  0.82538386  0.24726407    -0.05100
C1079       C  0.76870294  0.84420460  0.23772878    -0.32100
C1080       C  0.77618500  0.86563010  0.21638937     0.37000
H1081       H  0.70550777  0.85216290  0.20500741     0.17300
O1082       O  0.68562446  0.81050250  0.24322499    -0.59600
H1083       H  0.78657319  0.84224247  0.24671740     0.17300
O1084       O  0.80579351  0.88362409  0.20731728    -0.59700
H1085       H  0.80692517  0.87255620  0.19127993     0.44300
H1086       H  0.68322317  0.82262654  0.25740172     0.44300
C1087       C  0.34202717  0.29634493  0.89658588    -0.04800
C1088       C  0.32259552  0.30658555  0.90017756    -0.32200
C1089       C  0.33071120  0.33078673  0.91806924     0.37100
C1090       C  0.35870399  0.34515141  0.93276582    -0.05100
C1091       C  0.37762091  0.33411237  0.92986517    -0.32100
C1092       C  0.36956713  0.31005537  0.91176013     0.37000
H1093       H  0.30134552  0.29613918  0.88859035     0.17300
O1094       O  0.31124500  0.34041433  0.92070509    -0.59600
H1095       H  0.39914082  0.34471859  0.94102503     0.17300
O1096       O  0.38907750  0.30055835  0.90852646    -0.59700
H1097       H  0.40124387  0.31145857  0.89176804     0.44300
H1098       H  0.29829876  0.32905256  0.93696165     0.44300
C1099       C  0.73045298  0.81940224  0.02253269    -0.04800
C1100       C  0.76090123  0.84222998  0.02941047    -0.32200
C1101       C  0.76736074  0.86527931  0.04816638     0.37100
C1102       C  0.74324955  0.86556843  0.06020858    -0.05100
C1103       C  0.71303120  0.84380812  0.05246339    -0.32100
C1104       C  0.70647773  0.82090217  0.03363275     0.37000
H1105       H  0.77966827  0.84170190  0.02088816     0.17300
O1106       O  0.79716028  0.88722191  0.05480861    -0.59600
H1107       H  0.69441992  0.84407778  0.06175733     0.17300
O1108       O  0.67645608  0.79901333  0.02771541    -0.59700
H1109       H  0.67148733  0.80683229  0.01110571     0.44300
H1110       H  0.80124620  0.88010908  0.07241978     0.44300
C1111       C  0.45894396  0.52462622  0.73818902    -0.04800
C1112       C  0.42824216  0.51396139  0.73335632    -0.32200
C1113       C  0.41062993  0.49017924  0.71461011     0.37100
C1114       C  0.42382040  0.47678409  0.70031448    -0.05100
C1115       C  0.45486758  0.48818914  0.70468458    -0.32100
C1116       C  0.47232646  0.51176829  0.72360835     0.37000
H1117       H  0.41788359  0.52398645  0.74432996     0.17300
O1118       O  0.38079525  0.48071883  0.70995763    -0.59600
H1119       H  0.46545976  0.47824001  0.69399656     0.17300
O1120       O  0.50235244  0.52183390  0.72805329    -0.59700
H1121       H  0.50205650  0.50944168  0.74389437     0.44300
H1122       H  0.36924085  0.46741778  0.72604315     0.44300
C1123       C  0.59226962  0.67072384  0.87810620    -0.04800
C1124       C  0.60629357  0.70199454  0.88332705    -0.32200
C1125       C  0.62824113  0.71621660  0.90450521     0.37100
C1126       C  0.63610216  0.69888548  0.92072055    -0.05100
C1127       C  0.62147645  0.66746744  0.91546105    -0.32100
C1128       C  0.59983757  0.65345853  0.89437971     0.37000
H1129       H  0.60052080  0.71537539  0.87073076     0.17300
O1130       O  0.64183438  0.74690635  0.90903666    -0.59600
H1131       H  0.62721848  0.65363634  0.92735923     0.17300
O1132       O  0.58711704  0.62305746  0.88893545    -0.59700
H1133       H  0.56908155  0.61184555  0.90127571     0.44300
H1134       H  0.65917413  0.75726422  0.89585493     0.44300
C1135       C  0.45792598  0.53991270  0.88239134    -0.04800
C1136       C  0.42658308  0.52629860  0.88675259    -0.32200
C1137       C  0.41159013  0.50492195  0.90820151     0.37100
C1138       C  0.42814936  0.49704439  0.92548992    -0.05100
C1139       C  0.45982205  0.51188172  0.92168272    -0.32100
C1140       C  0.47466077  0.53303813  0.90029240     0.37000
H1141       H  0.41365597  0.53169340  0.87306087     0.17300
O1142       O  0.38077246  0.49148261  0.91164927    -0.59600
H1143       H  0.47313264  0.50651476  0.93486491     0.17300
O1144       O  0.50546579  0.54644312  0.89658657    -0.59700
H1145       H  0.50726119  0.53122018  0.88624909     0.44300
H1146       H  0.37085863  0.47416908  0.89842929     0.44300
C1147       C  0.63556759  0.62998683  0.22768456    -0.04800
C1148       C  0.62666069  0.65073988  0.22836379    -0.32200
C1149       C  0.63943485  0.67428552  0.24771553     0.37100
C1150       C  0.66237749  0.67802161  0.26588768    -0.05100
C1151       C  0.67139467  0.65725528  0.26514871    -0.32100
C1152       C  0.65772384  0.63296076  0.24639401     0.37000
H1153       H  0.60934658  0.64827745  0.21408788     0.17300
O1154       O  0.63044683  0.69441645  0.24777738    -0.59600
H1155       H  0.68891388  0.65982656  0.27920633     0.17300
O1156       O  0.66561411  0.61196451  0.24682153    -0.59700
H1157       H  0.68152233  0.61896471  0.23236887     0.44300
H1158       H  0.61191643  0.68459383  0.25956732     0.44300
C1159       C  0.50343913  0.48701714  0.08788011    -0.04800
C1160       C  0.47966425  0.49171332  0.08951843    -0.32200
C1161       C  0.45553595  0.47798928  0.07056371     0.37100
C1162       C  0.45486329  0.45893942  0.04966187    -0.05100
C1163       C  0.47851473  0.45381810  0.04844549    -0.32100
C1164       C  0.50279203  0.46782574  0.06740053     0.37000
H1165       H  0.48003851  0.50637570  0.10547432     0.17300
O1166       O  0.43252142  0.48293897  0.07300266    -0.59600
H1167       H  0.47853048  0.43944096  0.03243899     0.17300
O1168       O  0.52600351  0.46314409  0.06546420    -0.59700
H1169       H  0.52046783  0.44616924  0.07860357     0.44300
H1170       H  0.44080393  0.50351388  0.06484055     0.44300
C1171       C  0.67673799  0.67054294  0.04905010    -0.04800
C1172       C  0.65633979  0.67071139  0.06764512    -0.32200
C1173       C  0.64131467  0.64792561  0.08767513     0.37100
C1174       C  0.64637573  0.62430588  0.08941648    -0.05100
C1175       C  0.66719427  0.62418508  0.07145654    -0.32100
C1176       C  0.68247039  0.64721667  0.05128714     0.37000
H1177       H  0.65138688  0.68822557  0.06636247     0.17300
O1178       O  0.62061924  0.64810434  0.10477889    -0.59600
H1179       H  0.67119297  0.60600522  0.07283428     0.17300
O1180       O  0.70269965  0.64658206  0.03390757    -0.59700
H1181       H  0.68997875  0.63248878  0.01872802     0.44300
H1182       H  0.63294691  0.66176728  0.12034124     0.44300
C1183       C  0.06892587  0.48676887  0.69735524    -0.04800
C1184       C  0.04906204  0.49604760  0.70341255    -0.32200
C1185       C  0.05831359  0.52074192  0.72104174     0.37100
C1186       C  0.08795980  0.53687452  0.73252111    -0.05100
C1187       C  0.10830768  0.52854586  0.72558767    -0.32100
C1188       C  0.09903181  0.50371117  0.70810868     0.37000
H1189       H  0.02591773  0.48345871  0.69529183     0.17300
O1190       O  0.03793522  0.52839840  0.72762574    -0.59600
H1191       H  0.13117456  0.54088363  0.73434853     0.17300
O1192       O  0.11942520  0.49591679  0.70209225    -0.59700
H1193       H  0.13081092  0.50847667  0.68563946     0.44300
H1194       H  0.02886117  0.51797719  0.74556639     0.44300
C1195       C  0.68758889  0.00212501  0.60320958    -0.04800
C1196       C  0.65981989  0.98745679  0.58837771    -0.32200
C1197       C  0.65238280  0.96415604  0.56954461     0.37100
C1198       C  0.67282469  0.95515233  0.56528106    -0.05100
C1199       C  0.69977029  0.96854308  0.58114571    -0.32100
C1200       C  0.70712586  0.99167683  0.60019821     0.37000
H1201       H  0.64410128  0.99459688  0.59078279     0.17300
O1202       O  0.62525505  0.95045531  0.55516197    -0.59600
H1203       H  0.71564562  0.96170052  0.57805803     0.17300
O1204       O  0.73425063  0.00502306  0.61450206    -0.59700
H1205       H  0.73002438  0.99122505  0.63052559     0.44300
H1206       H  0.62798103  0.96579908  0.54120417     0.44300
C1207       C  0.79691802  0.18737183  0.40026334    -0.04800
C1208       C  0.81143857  0.17735421  0.38350482    -0.32200
C1209       C  0.79456033  0.15386546  0.36432218     0.37100
C1210       C  0.76271365  0.14018563  0.36182837    -0.05100
C1211       C  0.74858453  0.15106502  0.37816300    -0.32100
C1212       C  0.76547580  0.17456688  0.39710742     0.37000
H1213       H  0.83578814  0.18741766  0.38570112     0.17300
O1214       O  0.80936589  0.14434417  0.34842932    -0.59600
H1215       H  0.72422610  0.14114766  0.37649689     0.17300
O1216       O  0.75097597  0.18449471  0.41292253    -0.59700
H1217       H  0.75326370  0.20205604  0.40250450     0.44300
H1218       H  0.80927907  0.12833901  0.35966553     0.44300
C1219       C  0.79068255  0.19682847  0.54375835    -0.04800
C1220       C  0.75889669  0.18218085  0.54564774    -0.32200
C1221       C  0.74256743  0.16059329  0.56663469     0.37100
C1222       C  0.75817470  0.15333051  0.58583725    -0.05100
C1223       C  0.79013274  0.16870556  0.58411358    -0.32100
C1224       C  0.80630921  0.19011579  0.56320623     0.37000
H1225       H  0.74675515  0.18717550  0.53055520     0.17300
O1226       O  0.71137149  0.14592008  0.56743475    -0.59600
H1227       H  0.80269708  0.16377606  0.59875579     0.17300
O1228       O  0.83739684  0.20404746  0.56162017    -0.59700
H1229       H  0.84040899  0.19168790  0.54820901     0.44300
H1230       H  0.70763448  0.15942932  0.57848247     0.44300
C1231       C  0.92246147  0.33383531  0.54281651    -0.04800
C1232       C  0.93288033  0.31759021  0.55656609    -0.32200
C1233       C  0.95433214  0.33105631  0.57795648     0.37100
C1234       C  0.96563853  0.36138162  0.58609138    -0.05100
C1235       C  0.95452542  0.37736372  0.57263178    -0.32100
C1236       C  0.93300782  0.36371477  0.55109999     0.37000
H1237       H  0.92456398  0.29439439  0.55038281     0.17300
O1238       O  0.96381180  0.31418268  0.59086109    -0.59600
H1239       H  0.96279137  0.40060228  0.57853579     0.17300
O1240       O  0.92276563  0.37980091  0.53800276    -0.59700
H1241       H  0.90568859  0.37660096  0.54961798     0.44300
H1242       H  0.97971981  0.31577116  0.57856145     0.44300
C1243       C  0.00023797  0.35092418  0.93057442    -0.04800
C1244       C  0.01477371  0.33961097  0.91541418    -0.32200
C1245       C  0.99813174  0.31486439  0.89745304     0.37100
C1246       C  0.96648870  0.30117044  0.89418722    -0.05100
C1247       C  0.95172568  0.31180101  0.90979042    -0.32100
C1248       C  0.96830997  0.33648698  0.92787376     0.37000
H1249       H  0.03922850  0.35016777  0.91725324     0.17300
O1250       O  0.01313525  0.30485112  0.88251870    -0.59600
H1251       H  0.92732492  0.30133754  0.90740611     0.17300
O1252       O  0.95312228  0.34662123  0.94230124    -0.59700
H1253       H  0.95363569  0.36228093  0.93013640     0.44300
H1254       H  0.00777057  0.28540581  0.89155429     0.44300
C1255       C  0.96394355  0.28563498  0.74987367    -0.04800
C1256       C  0.99553082  0.29988397  0.74622206    -0.32200
C1257       C  0.01110772  0.32264783  0.72592229     0.37100
C1258       C  0.99499995  0.33157162  0.70929107    -0.05100
C1259       C  0.96317555  0.31617687  0.71221745    -0.32100
C1260       C  0.94767349  0.29341015  0.73227125     0.37000
H1261       H  0.00822491  0.29410362  0.75981486     0.17300
O1262       O  0.04221084  0.33725062  0.72372863    -0.59600
H1263       H  0.95024974  0.32222752  0.69926526     0.17300
O1264       O  0.91670474  0.27954507  0.73514924    -0.59700
H1265       H  0.91436549  0.29211874  0.74885895     0.44300
H1266       H  0.04530084  0.32411392  0.71141673     0.44300
C1267       C  0.82563693  0.15490865  0.75758115    -0.04800
C1268       C  0.81420943  0.17047416  0.74431841    -0.32200
C1269       C  0.79156689  0.15608936  0.72397926     0.37100
C1270       C  0.78028570  0.12563539  0.71630792    -0.05100
C1271       C  0.79202391  0.11015811  0.72960877    -0.32100
C1272       C  0.81451013  0.12461188  0.75024460     0.37000
H1273       H  0.82280150  0.19388555  0.74994459     0.17300
O1274       O  0.78130989  0.17237321  0.71124445    -0.59600
H1275       H  0.78366645  0.08678647  0.72411842     0.17300
O1276       O  0.82520898  0.10892180  0.76333619    -0.59700
H1277       H  0.84452737  0.11532383  0.75370910     0.44300
H1278       H  0.76615883  0.17133367  0.72419946     0.44300
C1279       C  0.39815969  0.36308103  0.36385174    -0.04800
C1280       C  0.38104606  0.33103478  0.36620009    -0.32200
C1281       C  0.38986538  0.31650467  0.38469574     0.37100
C1282       C  0.41628570  0.33396709  0.40111171    -0.05100
C1283       C  0.43435192  0.36584100  0.39784737    -0.32100
C1284       C  0.42546607  0.38048270  0.37947749     0.37000
H1285       H  0.36007483  0.31715292  0.35443999     0.17300
O1286       O  0.37142639  0.28534742  0.38796044    -0.59600
H1287       H  0.45483654  0.37945027  0.41031122     0.17300
O1288       O  0.44353386  0.41176737  0.37718236    -0.59700
H1289       H  0.43750590  0.41947166  0.39286225     0.44300
H1290       H  0.37761361  0.27688005  0.37310181     0.44300
C1291       C  0.44185085  0.45958236  0.25964866    -0.04800
C1292       C  0.44657980  0.48454559  0.24395323    -0.32200
C1293       C  0.47197526  0.50073767  0.22648839     0.37100
C1294       C  0.49313153  0.49221315  0.22490151    -0.05100
C1295       C  0.48872671  0.46766970  0.24083614    -0.32100
C1296       C  0.46324648  0.45127080  0.25802447     0.37000
H1297       H  0.43028800  0.49111847  0.24482432     0.17300
O1298       O  0.47562303  0.52436046  0.21053688    -0.59600
H1299       H  0.50498937  0.46107426  0.23970293     0.17300
O1300       O  0.45960686  0.42725877  0.27330044    -0.59700
H1301       H  0.46902030  0.43607567  0.29161972     0.44300
H1302       H  0.48675452  0.54268625  0.22253995     0.44300
C1303       C  0.03271866  0.46243297  0.25747952    -0.04800
C1304       C  0.00160104  0.45021954  0.25241505    -0.32200
C1305       C  0.99262028  0.46570660  0.23541605     0.37100
C1306       C  0.01487439  0.49369758  0.22315057    -0.05100
C1307       C  0.04596782  0.50609490  0.22829065    -0.32100
C1308       C  0.05499464  0.49078234  0.24553803     0.37000
H1309       H  0.98416230  0.42852210  0.26157377     0.17300
O1310       O  0.96210913  0.45331540  0.23067468    -0.59600
H1311       H  0.06323191  0.52747928  0.21854148     0.17300
O1312       O  0.08557565  0.50280520  0.24925782    -0.59700
H1313       H  0.09207184  0.51771609  0.26456412     0.44300
H1314       H  0.95577589  0.43694234  0.21682781     0.44300
C1315       C  0.97645303  0.35943673  0.35897305    -0.04800
C1316       C  0.96336032  0.32824630  0.36425158    -0.32200
C1317       C  0.94022883  0.31283597  0.38387502     0.37100
C1318       C  0.92944461  0.32848370  0.39801162    -0.05100
C1319       C  0.94142260  0.35922817  0.39178662    -0.32100
C1320       C  0.96485223  0.37478684  0.37242555     0.37000
H1321       H  0.97191912  0.31608039  0.35403505     0.17300
O1322       O  0.92873278  0.28265781  0.38960592    -0.59600
H1323       H  0.93295671  0.37127073  0.40239021     0.17300
O1324       O  0.97655577  0.40509148  0.36718498    -0.59700
H1325       H  0.96598270  0.40528231  0.35008918     0.44300
H1326       H  0.94196611  0.28297431  0.40462717     0.44300
C1327       C  0.15944571  0.44339863  0.55675295    -0.04800
C1328       C  0.14871391  0.46263132  0.55820727    -0.32200
C1329       C  0.12551189  0.45624584  0.57676615     0.37100
C1330       C  0.11308126  0.43050752  0.59454338    -0.05100
C1331       C  0.12430451  0.41162061  0.59327940    -0.32100
C1332       C  0.14715383  0.41779704  0.57443002     0.37000
H1333       H  0.15803706  0.48234798  0.54456125     0.17300
O1334       O  0.11544667  0.47548665  0.57751578    -0.59600
H1335       H  0.11478533  0.39149249  0.60640611     0.17300
O1336       O  0.15628452  0.39786453  0.57239471    -0.59700
H1337       H  0.17134804  0.40357809  0.58760088     0.44300
H1338       H  0.09983286  0.46823701  0.56257991     0.44300
C1339       C  0.32114705  0.42640300  0.59676371    -0.04800
C1340       C  0.28908267  0.40888946  0.59498135    -0.32200
C1341       C  0.27397691  0.41824149  0.57788189     0.37100
C1342       C  0.29095680  0.44561546  0.56256699    -0.05100
C1343       C  0.32281589  0.46395852  0.56543772    -0.32100
C1344       C  0.33801460  0.45428782  0.58190737     0.37000
H1345       H  0.27571544  0.38734478  0.60607384     0.17300
O1346       O  0.24285571  0.39942776  0.57463907    -0.59600
H1347       H  0.33603336  0.48493431  0.55348719     0.17300
O1348       O  0.36936073  0.47215591  0.58304678    -0.59700
H1349       H  0.37622920  0.46630608  0.56657768     0.44300
H1350       H  0.23417357  0.40392766  0.59062380     0.44300
C1351       C  0.29790677  0.45120243  0.41773692    -0.04800
C1352       C  0.32931221  0.47089325  0.41252827    -0.32200
C1353       C  0.34331276  0.46375958  0.39205472     0.37100
C1354       C  0.32578842  0.43649291  0.37664902    -0.05100
C1355       C  0.29432452  0.41697362  0.38206197    -0.32100
C1356       C  0.28043504  0.42414162  0.40234363     0.37000
H1357       H  0.34293920  0.49171602  0.42441949     0.17300
O1358       O  0.37407708  0.48342254  0.38749288    -0.59600
H1359       H  0.28030716  0.39597811  0.37048588     0.17300
O1360       O  0.24964845  0.40453159  0.40699831    -0.59700
H1361       H  0.24802151  0.39207554  0.42334790     0.44300
H1362       H  0.38406236  0.47711528  0.40094946     0.44300
C1363       C  0.16820017  0.44804354  0.41231971    -0.04800
C1364       C  0.16336774  0.47063476  0.40368918    -0.32200
C1365       C  0.14255370  0.46468294  0.38235351     0.37100
C1366       C  0.12581824  0.43551847  0.36994294    -0.05100
C1367       C  0.13142993  0.41325213  0.37835824    -0.32100
C1368       C  0.15249020  0.41939953  0.39935177     0.37000
H1369       H  0.17561518  0.49279582  0.41366142     0.17300
O1370       O  0.13815899  0.48719839  0.37442144    -0.59600
H1371       H  0.11924702  0.39083398  0.36886952     0.17300
O1372       O  0.15749144  0.39726149  0.40725109    -0.59700
H1373       H  0.14200757  0.38508769  0.42173823     0.44300
H1374       H  0.15441488  0.49975313  0.36062582     0.44300
C1375       C  0.30502608  0.38970362  0.03449987    -0.04800
C1376       C  0.29924637  0.41059248  0.04584177    -0.32200
C1377       C  0.27497614  0.40062907  0.06409331     0.37100
C1378       C  0.25583984  0.36938363  0.07085771    -0.05100
C1379       C  0.26087066  0.34828681  0.05893983    -0.32100
C1380       C  0.28531938  0.35823979  0.04083430     0.37000
H1381       H  0.31406673  0.43480943  0.04119244     0.17300
O1382       O  0.27014292  0.42156316  0.07539474    -0.59600
H1383       H  0.24597509  0.32416394  0.06393418     0.17300
O1384       O  0.28980007  0.33703938  0.02961534    -0.59700
H1385       H  0.28014335  0.33258439  0.01096410     0.44300
H1386       H  0.28139277  0.42747475  0.09331176     0.44300
C1387       C  0.24389969  0.35024486  0.21124179    -0.04800
C1388       C  0.24494622  0.32828842  0.22717510    -0.32200
C1389       C  0.26795958  0.33743226  0.24732986     0.37100
C1390       C  0.29025775  0.36889425  0.25149131    -0.05100
C1391       C  0.28880970  0.39053515  0.23531849    -0.32100
C1392       C  0.26601117  0.38144777  0.21542499     0.37000
H1393       H  0.22794767  0.30417485  0.22398216     0.17300
O1394       O  0.26855418  0.31550838  0.26253306    -0.59600
H1395       H  0.30542117  0.41481676  0.23806729     0.17300
O1396       O  0.26512686  0.40331208  0.20035862    -0.59700
H1397       H  0.27757671  0.40689500  0.18361231     0.44300
H1398       H  0.25509788  0.31124664  0.27865954     0.44300
C1399       C  0.10362752  0.40044230  0.03160888    -0.04800
C1400       C  0.08845137  0.36894036  0.03730584    -0.32200
C1401       C  0.10152964  0.35781842  0.05501615     0.37100
C1402       C  0.12983252  0.37830371  0.06776151    -0.05100
C1403       C  0.14547847  0.40963052  0.06156645    -0.32100
C1404       C  0.13262151  0.42078721  0.04359073     0.37000
H1405       H  0.06627857  0.35287358  0.02812710     0.17300
O1406       O  0.08613082  0.32704508  0.06048603    -0.59600
H1407       H  0.16737837  0.42553265  0.07128635     0.17300
O1408       O  0.14814723  0.45167104  0.03863862    -0.59700
H1409       H  0.14036578  0.45954211  0.05259402     0.44300
H1410       H  0.09104323  0.31838043  0.04478239     0.44300
C1411       C  0.09161841  0.37670626  0.24751002    -0.04800
C1412       C  0.08034735  0.34543224  0.24524191    -0.32200
C1413       C  0.09306952  0.33558944  0.22611739     0.37100
C1414       C  0.11698076  0.35713053  0.20895049    -0.05100
C1415       C  0.12863973  0.38826340  0.21160528    -0.32100
C1416       C  0.11612062  0.39816538  0.23053765     0.37000
H1417       H  0.06182201  0.32866276  0.25835570     0.17300
O1418       O  0.08183392  0.30504167  0.22403667    -0.59600
H1419       H  0.14736545  0.40493378  0.19857714     0.17300
O1420       O  0.12804447  0.42891296  0.23212771    -0.59700
H1421       H  0.11597620  0.43261936  0.21866867     0.44300
H1422       H  0.09400878  0.30145448  0.23746230     0.44300
C1423       C  0.10621006  0.79081197  0.59880240    -0.04800
C1424       C  0.11751185  0.77561711  0.58481284    -0.32200
C1425       C  0.14223244  0.79151116  0.56685815     0.37100
C1426       C  0.15567747  0.82290401  0.56236594    -0.05100
C1427       C  0.14540630  0.83849713  0.57711073    -0.32100
C1428       C  0.12073850  0.82265829  0.59527296     0.37000
H1429       H  0.10688746  0.75121539  0.58748172     0.17300
O1430       O  0.15224384  0.77597533  0.55282419    -0.59600
H1431       H  0.15583203  0.86278275  0.57370846     0.17300
O1432       O  0.11049121  0.83831886  0.60871868    -0.59700
H1433       H  0.09754731  0.84039714  0.59495865     0.44300
H1434       H  0.17123050  0.78103225  0.56255530     0.44300
C1435       C  0.05675360  0.68924523  0.69884432    -0.04800
C1436       C  0.03777619  0.65768394  0.70435903    -0.32200
C1437       C  0.04717576  0.64354256  0.72281183     0.37100
C1438       C  0.07610495  0.66085599  0.73564913    -0.05100
C1439       C  0.09542662  0.69207127  0.72956058    -0.32100
C1440       C  0.08598630  0.70634789  0.71146854     0.37000
H1441       H  0.01527129  0.64407668  0.69496871     0.17300
O1442       O  0.02777213  0.61293088  0.72856146    -0.59600
H1443       H  0.11780002  0.70551505  0.73923943     0.17300
O1444       O  0.10570713  0.73702234  0.70615908    -0.59700
H1445       H  0.10281443  0.74748596  0.72168957     0.44300
H1446       H  0.01605112  0.61188459  0.74506992     0.44300
C1447       C  0.70348421  0.80174275  0.59571358    -0.04800
C1448       C  0.72443153  0.83283730  0.58942783    -0.32200
C1449       C  0.71627427  0.84826395  0.57136055     0.37100
C1450       C  0.68689338  0.83260027  0.55947240    -0.05100
C1451       C  0.66572490  0.80189422  0.56611569    -0.32100
C1452       C  0.67380611  0.78635085  0.58398804     0.37000
H1453       H  0.74735611  0.84504451  0.59803905     0.17300
O1454       O  0.73747425  0.87822682  0.56449117    -0.59600
H1455       H  0.64303147  0.78982875  0.55698580     0.17300
O1456       O  0.65236050  0.75621477  0.59004711    -0.59700
H1457       H  0.65290039  0.74455230  0.57420898     0.44300
H1458       H  0.73532258  0.89041004  0.57879568     0.44300
C1459       C  0.64699603  0.69617894  0.69712987    -0.04800
C1460       C  0.63502661  0.71057637  0.71146033    -0.32200
C1461       C  0.61070539  0.69406009  0.72990962     0.37100
C1462       C  0.59782217  0.66266137  0.73408818    -0.05100
C1463       C  0.60881580  0.64791543  0.71906607    -0.32100
C1464       C  0.63316710  0.66437177  0.70062387     0.37000
H1465       H  0.64496924  0.73487460  0.70890215     0.17300
O1466       O  0.59972390  0.70872808  0.74395565    -0.59600
H1467       H  0.59910728  0.62374417  0.72236130     0.17300
O1468       O  0.64407756  0.64933634  0.68716201    -0.59700
H1469       H  0.63197250  0.64172510  0.66974795     0.44300
H1470       H  0.61467323  0.72001865  0.75910787     0.44300
C1471       C  0.91508683  0.70606702  0.39689588    -0.04800
C1472       C  0.92082346  0.68390120  0.38961879    -0.32200
C1473       C  0.94392017  0.69090963  0.37075070     0.37100
C1474       C  0.96148834  0.72042278  0.35885769    -0.05100
C1475       C  0.95418466  0.74187250  0.36469654    -0.32100
C1476       C  0.93128627  0.73492305  0.38382848     0.37000
H1477       H  0.90800796  0.66146523  0.39928504     0.17300
O1478       O  0.94913297  0.66877056  0.36401954    -0.59600
H1479       H  0.96733128  0.76459384  0.35561823     0.17300
O1480       O  0.92567108  0.75679891  0.39048114    -0.59700
H1481       H  0.94005283  0.76859119  0.40585066     0.44300
H1482       H  0.96136945  0.66837851  0.37964658     0.44300
C1483       C  0.91312902  0.69251299  0.54175807    -0.04800
C1484       C  0.92276643  0.67270901  0.54708760    -0.32200
C1485       C  0.94405928  0.67929538  0.56829214     0.37100
C1486       C  0.95589983  0.70601548  0.58428290    -0.05100
C1487       C  0.94588749  0.72552381  0.57885505    -0.32100
C1488       C  0.92461376  0.71886807  0.55795318     0.37000
H1489       H  0.91390928  0.65231483  0.53469588     0.17300
O1490       O  0.95341481  0.65978555  0.57289238    -0.59600
H1491       H  0.95457516  0.74614387  0.59087635     0.17300
O1492       O  0.91571613  0.73871178  0.55291024    -0.59700
H1493       H  0.89979541  0.73353488  0.56693610     0.44300
H1494       H  0.97095951  0.66694742  0.56022610     0.44300
C1495       C  0.79123196  0.71656792  0.40437833    -0.04800
C1496       C  0.75975279  0.69685221  0.39994238    -0.32200
C1497       C  0.74449660  0.70511509  0.38187095     0.37100
C1498       C  0.76088054  0.73355610  0.36779270    -0.05100
C1499       C  0.79267819  0.75282758  0.37160869    -0.32100
C1500       C  0.80787126  0.74448243  0.38978242     0.37000
H1501       H  0.74693084  0.67511714  0.41083005     0.17300
O1502       O  0.71367890  0.68490755  0.37773454    -0.59600
H1503       H  0.80570900  0.77469037  0.36096735     0.17300
O1504       O  0.83873157  0.76424752  0.39404662    -0.59700
H1505       H  0.84852751  0.75904298  0.37965312     0.44300
H1506       H  0.70378064  0.68749427  0.39394142     0.44300
C1507       C  0.78959608  0.69841071  0.54814981    -0.04800
C1508       C  0.75839567  0.67959129  0.55439830    -0.32200
C1509       C  0.74567896  0.68829658  0.57470084     0.37100
C1510       C  0.76433353  0.71634939  0.58876976    -0.05100
C1511       C  0.79574942  0.73457319  0.58284203    -0.32100
C1512       C  0.80839109  0.72571383  0.56283357     0.37000
H1513       H  0.74378501  0.65865877  0.54289756     0.17300
O1514       O  0.71483413  0.67001551  0.57953092    -0.59600
H1515       H  0.81060079  0.75612581  0.59339124     0.17300
O1516       O  0.83885825  0.74475195  0.55654852    -0.59700
H1517       H  0.84962718  0.73985179  0.57046186     0.44300
H1518       H  0.71233218  0.65484434  0.59357317     0.44300
C1519       C  0.96264544  0.77046549  0.88957297    -0.04800
C1520       C  0.98998125  0.79310155  0.90225543    -0.32200
C1521       C  0.00637249  0.78516686  0.91920083     0.37100
C1522       C  0.99495453  0.75407492  0.92439059    -0.05100
C1523       C  0.96712383  0.73138627  0.91217953    -0.32100
C1524       C  0.95114841  0.73940900  0.89457756     0.37000
H1525       H  0.99895020  0.81704869  0.89848860     0.17300
O1526       O  0.03321241  0.80803340  0.93106962    -0.59600
H1527       H  0.95813573  0.70740092  0.91568937     0.17300
O1528       O  0.92491619  0.71689790  0.88158100    -0.59700
H1529       H  0.90921116  0.70716752  0.89633511     0.44300
H1530       H  0.04892650  0.81465190  0.91646784     0.44300
C1531       C  0.96386351  0.78619525  0.74992089    -0.04800
C1532       C  0.95725089  0.75640792  0.75078891    -0.32200
C1533       C  0.96994771  0.74688169  0.73150414     0.37100
C1534       C  0.98939878  0.76720974  0.71058457    -0.05100
C1535       C  0.99608981  0.79718511  0.70979851    -0.32100
C1536       C  0.98329151  0.80667793  0.72927152     0.37000
H1537       H  0.94233405  0.74054826  0.76674526     0.17300
O1538       O  0.96329372  0.71767076  0.73348730    -0.59600
H1539       H  0.01101481  0.81318781  0.69394749     0.17300
O1540       O  0.99037839  0.83608641  0.72842139    -0.59700
H1541       H  0.97629193  0.83586356  0.71440621     0.44300
H1542       H  0.97935054  0.71923548  0.74581282     0.44300
C1543       C  0.83467044  0.77963243  0.89414161    -0.04800
C1544       C  0.80525960  0.75574459  0.88622858    -0.32200
C1545       C  0.78065896  0.74521091  0.90413135     0.37100
C1546       C  0.78537111  0.75873702  0.93046809    -0.05100
C1547       C  0.81508178  0.78215362  0.93860931    -0.32100
C1548       C  0.83964412  0.79276879  0.92052216     0.37000
H1549       H  0.80143332  0.74526862  0.86601623     0.17300
O1550       O  0.75211443  0.72210224  0.89539909    -0.59600
H1551       H  0.81922136  0.79278195  0.95876625     0.17300
O1552       O  0.86841504  0.81580016  0.92878202    -0.59700
H1553       H  0.87043366  0.83500073  0.92278438     0.44300
H1554       H  0.74982861  0.70295350  0.90200777     0.44300
C1555       C  0.79444965  0.78449181  0.71676090    -0.04800
C1556       C  0.82110619  0.81425659  0.71696283    -0.32200
C1557       C  0.84390695  0.82277056  0.73713697     0.37100
C1558       C  0.83984202  0.80162482  0.75768708    -0.05100
C1559       C  0.81256155  0.77262354  0.75844928    -0.32100
C1560       C  0.79000604  0.76393715  0.73827327     0.37000
H1561       H  0.82489321  0.83049683  0.70080601     0.17300
O1562       O  0.87028186  0.85145612  0.73631507    -0.59600
H1563       H  0.80931734  0.75616045  0.77417435     0.17300
O1564       O  0.76418973  0.73484646  0.73929199    -0.59700
H1565       H  0.74933582  0.73653163  0.75038755     0.44300
H1566       H  0.88385807  0.84988198  0.72323889     0.44300
C1567       C  0.71464392  0.02362101  0.03105047    -0.04800
C1568       C  0.69419565  0.99176717  0.03338455    -0.32200
C1569       C  0.70164136  0.97446506  0.04964197     0.37100
C1570       C  0.72981283  0.98903480  0.06375755    -0.05100
C1571       C  0.75084917  0.02055615  0.06043419    -0.32100
C1572       C  0.74346031  0.03790843  0.04429235     0.37000
H1573       H  0.67204551  0.98036361  0.02325137     0.17300
O1574       O  0.68066704  0.94364285  0.05285522    -0.59600
H1575       H  0.77270026  0.03184463  0.07111480     0.17300
O1576       O  0.76476450  0.06869782  0.04123217    -0.59700
H1577       H  0.76326522  0.07816872  0.05834190     0.44300
H1578       H  0.68286367  0.93414919  0.03611621     0.44300
C1579       C  0.82806602  0.16517032  0.90198473    -0.04800
C1580       C  0.81689248  0.18088635  0.91500599    -0.32200
C1581       C  0.79212338  0.16558002  0.93318877     0.37100
C1582       C  0.77833876  0.13408430  0.93856830    -0.05100
C1583       C  0.79103553  0.11901922  0.92679421    -0.32100
C1584       C  0.81573547  0.13437213  0.90864271     0.37000
H1585       H  0.82652471  0.20474469  0.91005097     0.17300
O1586       O  0.78118293  0.18144944  0.94496945    -0.59600
H1587       H  0.78111898  0.09493567  0.93082322     0.17300
O1588       O  0.82662880  0.11871652  0.89633624    -0.59700
H1589       H  0.84432988  0.12308346  0.90791689     0.44300
H1590       H  0.76820791  0.18244505  0.93046666     0.44300
C1591       C  0.36524354  0.13976217  0.93396076    -0.04800
C1592       C  0.33666328  0.12249889  0.92058301    -0.32200
C1593       C  0.32701467  0.13636526  0.90230106     0.37100
C1594       C  0.34595445  0.16793493  0.89723245    -0.05100
C1595       C  0.37390601  0.18555199  0.91138117    -0.32100
C1596       C  0.38359982  0.17171527  0.92978829     0.37000
H1597       H  0.32191816  0.09799581  0.92382765     0.17300
O1598       O  0.29915382  0.11895585  0.88928919    -0.59600
H1599       H  0.38862201  0.20994351  0.90745972     0.17300
O1600       O  0.41168140  0.18937805  0.94232374    -0.59700
H1601       H  0.40785648  0.19685583  0.95961621     0.44300
H1602       H  0.30219118  0.10800040  0.87433842     0.44300
C1603       C  0.31358997  0.03317233  0.03143174    -0.04800
C1604       C  0.30361548  0.04741637  0.04877834    -0.32200
C1605       C  0.27985537  0.03025189  0.06754962     0.37100
C1606       C  0.26600425  0.99846193  0.06944570    -0.05100
C1607       C  0.27530946  0.98404878  0.05172553    -0.32100
C1608       C  0.29888566  0.00111579  0.03275804     0.37000
H1609       H  0.31449906  0.07199434  0.04806387     0.17300
O1610       O  0.27091780  0.04479472  0.08454476    -0.59600
H1611       H  0.26472817  0.95953682  0.05312766     0.17300
O1612       O  0.30781877  0.98627200  0.01618220    -0.59700
H1613       H  0.32300961  0.98490705  0.02736914     0.44300
H1614       H  0.25312978  0.04297240  0.07502697     0.44300
C1615       C  0.62966136  0.11458856  0.22506224    -0.04800
C1616       C  0.61149063  0.08832156  0.24136551    -0.32200
C1617       C  0.62487416  0.07732372  0.25881367     0.37100
C1618       C  0.65699674  0.09281795  0.26025220    -0.05100
C1619       C  0.67510261  0.11955174  0.24425255    -0.32100
C1620       C  0.66166609  0.13048516  0.22685921     0.37000
H1621       H  0.58678339  0.07590850  0.24004275     0.17300
O1622       O  0.60629741  0.05136804  0.27419210    -0.59600
H1623       H  0.69982614  0.13195271  0.24497141     0.17300
O1624       O  0.67994156  0.15621983  0.21109377    -0.59700
H1625       H  0.68283121  0.17339715  0.22233523     0.44300
H1626       H  0.60080956  0.03414658  0.26163461     0.44300
C1627       C  0.45865151  0.10731046  0.27265044    -0.04800
C1628       C  0.47683684  0.13810279  0.26407525    -0.32200
C1629       C  0.50133964  0.14800846  0.24596738     0.37100
C1630       C  0.50781195  0.12700830  0.23619428    -0.05100
C1631       C  0.49066797  0.09667012  0.24569139    -0.32100
C1632       C  0.46628459  0.08673445  0.26388351     0.37000
H1633       H  0.47161611  0.15438198  0.27090020     0.17300
O1634       O  0.51847572  0.17802030  0.23751982    -0.59600
H1635       H  0.49535048  0.08030763  0.23790845     0.17300
O1636       O  0.44874503  0.05640092  0.27124715    -0.59700
H1637       H  0.45887855  0.05464011  0.28794760     0.44300
H1638       H  0.50820526  0.17890157  0.22050204     0.44300
C1639       C  0.50277537  0.13421895  0.09179010    -0.04800
C1640       C  0.48453073  0.10365070  0.08350627    -0.32200
C1641       C  0.46300202  0.09478695  0.06231851     0.37100
C1642       C  0.45989221  0.11691893  0.04862554    -0.05100
C1643       C  0.47792767  0.14755100  0.05741625    -0.32100
C1644       C  0.49911562  0.15620125  0.07905947     0.37000
H1645       H  0.48725572  0.08661526  0.09340689     0.17300
O1646       O  0.44583886  0.06458724  0.05469420    -0.59600
H1647       H  0.47570493  0.16485987  0.04745511     0.17300
O1648       O  0.51669247  0.18621292  0.08710792    -0.59700
H1649       H  0.50545532  0.18777047  0.10275625     0.44300
H1650       H  0.42899117  0.05436259  0.06838807     0.44300
C1651       C  0.62654375  0.12808125  0.08080633    -0.04800
C1652       C  0.65845742  0.14323700  0.07955772    -0.32200
C1653       C  0.67212606  0.13521737  0.05967629     0.37100
C1654       C  0.65379252  0.11190762  0.04038529    -0.05100
C1655       C  0.62193734  0.09787335  0.04081048    -0.32100
C1656       C  0.60830090  0.10592927  0.06068744     0.37000
H1657       H  0.67271158  0.16038772  0.09489692     0.17300
O1658       O  0.70328964  0.14945376  0.06007372    -0.59600
H1659       H  0.60742820  0.08012726  0.02601615     0.17300
O1660       O  0.57702466  0.09072587  0.06136480    -0.59700
H1661       H  0.57162981  0.09959037  0.04591890     0.44300
H1662       H  0.70722402  0.13742209  0.07337648     0.44300
C1663       C  0.58482650  0.04646101  0.73112238    -0.04800
C1664       C  0.60849256  0.07716657  0.72705722    -0.32200
C1665       C  0.63244454  0.08498858  0.70901468     0.37100
C1666       C  0.63315165  0.06179919  0.69523895    -0.05100
C1667       C  0.60903792  0.03109639  0.69884983    -0.32100
C1668       C  0.58465736  0.02338873  0.71636397     0.37000
H1669       H  0.60860030  0.09503082  0.73834081     0.17300
O1670       O  0.65563562  0.11519949  0.70591307    -0.59600
H1671       H  0.60924835  0.01305193  0.68826110     0.17300
O1672       O  0.56143823  0.99326682  0.71986760    -0.59700
H1673       H  0.54737532  0.98852566  0.70397324     0.44300
H1674       H  0.67028029  0.11940032  0.72116018     0.44300
C1675       C  0.45550265  0.05250200  0.73574289    -0.04800
C1676       C  0.46650445  0.08352991  0.73237000    -0.32200
C1677       C  0.45167877  0.09246733  0.71449129     0.37100
C1678       C  0.42496910  0.07006607  0.70047642    -0.05100
C1679       C  0.41424612  0.03902334  0.70364959    -0.32100
C1680       C  0.42952370  0.03018864  0.72103103     0.37000
H1681       H  0.48658209  0.10077423  0.74373927     0.17300
O1682       O  0.46254192  0.12293280  0.71197923    -0.59600
H1683       H  0.39396199  0.02157543  0.69264504     0.17300
O1684       O  0.41905969  0.99981951  0.72352244    -0.59700
H1685       H  0.40230556  0.99132269  0.73730481     0.44300
H1686       H  0.47841934  0.13090107  0.69737773     0.44300
C1687       C  0.58418585  0.03474634  0.87142453    -0.04800
C1688       C  0.61267573  0.06263159  0.87019204    -0.32200
C1689       C  0.63532125  0.06980672  0.88993218     0.37100
C1690       C  0.62954879  0.04905415  0.91169116    -0.05100
C1691       C  0.60152460  0.02039507  0.91202246    -0.32100
C1692       C  0.57882223  0.01327319  0.89214391     0.37000
H1693       H  0.61708766  0.07921575  0.85415008     0.17300
O1694       O  0.66272312  0.09756155  0.88811885    -0.59600
H1695       H  0.59669188  0.00397883  0.92835073     0.17300
O1696       O  0.55139890  0.98548818  0.89324052    -0.59700
H1697       H  0.53868416  0.98832355  0.90634746     0.44300
H1698       H  0.67603610  0.09368199  0.87692608     0.44300
C1699       C  0.43077475  0.06094941  0.91750772    -0.04800
C1700       C  0.44929413  0.08210659  0.89683357    -0.32200
C1701       C  0.46212043  0.07408109  0.87619666     0.37100
C1702       C  0.45635035  0.04448715  0.87589613    -0.05100
C1703       C  0.43783712  0.02324403  0.89635657    -0.32100
C1704       C  0.42517924  0.03132670  0.91720433     0.37000
H1705       H  0.45391039  0.10497892  0.89667189     0.17300
O1706       O  0.48036366  0.09530612  0.85641836    -0.59600
H1707       H  0.43361614  0.00053337  0.89636110     0.17300
O1708       O  0.40797345  0.01032936  0.93748466    -0.59700
H1709       H  0.42291857  0.01287848  0.95180972     0.44300
H1710       H  0.50157784  0.10477216  0.86339085     0.44300
loop_ 
_geom_bond_atom_site_label_1 
_geom_bond_atom_site_label_2 
_geom_bond_distance 
_geom_bond_site_symmetry_2 
_ccdc_geom_bond_type 
N1            C6   1.354       .  A
N1            C5   1.354       .  A
N1           H33   1.039       .  S
N2            C9   1.348       .  A
N2           C10   1.349       .  A
N3            C8   1.350       .  A
N3            C7   1.351       .  A
N3           H34   1.039       .  S
N4           C11   1.351       .  A
N4           C12   1.351       .  A
C5           C13   1.387       .  A
C5           C21   1.415       .  A
C6           C22   1.417       .  A
C6           C14   1.387       .  A
C7           C15   1.387       .  A
C7           C24   1.409       .  A
C8           C23   1.411       .  A
C8           C16   1.388       .  A
C9           C21   1.408       .  A
C9           C17   1.386       .  A
C10          C24   1.408       .  A
C10          C18   1.387       .  A
C11          C19   1.385       .  A
C11          C22   1.411       .  A
C12          C20   1.387       .  A
C12          C23   1.412       .  A
C13          C14   1.373       .  A
C13          H25   1.082       .  S
C14          H26   1.082       .  S
C15          C16   1.371       .  A
C15          H27   1.082       .  S
C16          H28   1.082       .  S
C17          C18   1.370       .  A
C17          H29   1.082       .  S
C18          H30   1.082       .  S
C19          C20   1.370       .  A
C19          H31   1.082       .  S
C20          H32   1.082       .  S
C21        C1702   1.480       .  S
C22        C1687   1.487       .  S
C23        C1663   1.477       .  S
C24        C1675   1.474       .  S
N35          C40   1.351       .  A
N35          C39   1.348       .  A
N35          H67   1.040       .  S
N36          C43   1.351       .  A
N36          C44   1.350       .  A
N37          C42   1.350       .  A
N37          C41   1.350       .  A
N37          H68   1.039       .  S
N38          C45   1.352       .  A
N38          C46   1.351       .  A
C39          C47   1.387       .  A
C39          C55   1.408       .  A
C40          C56   1.412       .  A
C40          C48   1.387       .  A
C41          C49   1.386       .  A
C41          C58   1.410       .  A
C42          C57   1.413       .  A
C42          C50   1.388       .  A
C43          C55   1.409       .  A
C43          C51   1.385       .  A
C44          C58   1.412       .  A
C44          C52   1.388       .  A
C45          C53   1.386       .  A
C45          C56   1.414       .  A
C46          C54   1.386       .  A
C46          C57   1.413       .  A
C47          C48   1.377       .  A
C47          H59   1.082       .  S
C48          H60   1.082       .  S
C49          C50   1.377       .  A
C49          H61   1.083       .  S
C50          H62   1.082       .  S
C51          C52   1.371       .  A
C51          H63   1.082       .  S
C52          H64   1.082       .  S
C53          C54   1.371       .  A
C53          H65   1.082       .  S
C54          H66   1.082       .  S
C55        C1639   1.475       .  S
C56        C1651   1.488       .  S
C57        C1615   1.483       .  S
C58        C1630   1.478       .  S
O69          C72   1.266       .  A
O69         Cd74   2.456       .  S
C70        C1603   1.474       .  S
C70          O79   1.265       .  A
C70          O75   1.268   1_554  A
O71          C77   1.269       .  A
O71         Cd74   2.468   1_554  S
C72        C1699   1.476       .  S
C72          O80   1.265       .  A
C73        C1591   1.475       .  S
C73          O78   1.269       .  A
C73          O76   1.265       .  A
Cd74         O81   2.414   1_556  S
Cd74         O80   2.441       .  S
Cd74         O79   2.422   1_556  S
Cd74         O75   2.442       .  S
Cd74         O78   2.467       .  S
Cd74         O76   2.404       .  S
C77        C1642   1.478       .  S
C77          O81   1.263       .  A
O82          C85   1.267       .  A
O82         Cd87   2.462       .  S
C83        C1654   1.480       .  S
C83          O92   1.265       .  A
C83          O88   1.265       .  A
O84          C90   1.268       .  A
O84         Cd87   2.491       .  S
C85        C1582   1.478       .  S
C85          O93   1.264       .  A
C86        C1567   1.476       .  S
C86          O91   1.268   1_554  A
C86          O89   1.264       .  A
Cd87         O94   2.429       .  S
Cd87         O93   2.424       .  S
Cd87         O92   2.452   1_556  S
Cd87         O88   2.470   1_556  S
Cd87         O91   2.467       .  S
Cd87         O89   2.429   1_556  S
C90        C1690   1.482       .  S
C90          O94   1.264       .  A
N95         C100   1.354       .  A
N95          C99   1.353       .  A
N95         H127   1.040       .  S
N96         C103   1.349       .  A
N96         C104   1.352       .  A
N97         C102   1.350       .  A
N97         C101   1.353       .  A
N97         H128   1.039       .  S
N98         C105   1.350       .  A
N98         C106   1.348       .  A
C99         C107   1.387       .  A
C99         C115   1.413       .  A
C100        C116   1.415       .  A
C100        C108   1.388       .  A
C101        C109   1.386       .  A
C101        C118   1.411       .  A
C102        C117   1.412       .  A
C102        C110   1.388       .  A
C103        C115   1.410       .  A
C103        C111   1.386       .  A
C104        C118   1.411       .  A
C104        C112   1.386       .  A
C105        C113   1.385       .  A
C105        C116   1.408       .  A
C106        C114   1.387       .  A
C106        C117   1.411       .  A
C107        C108   1.373       .  A
C107        H119   1.082       .  S
C108        H120   1.082       .  S
C109        C110   1.372       .  A
C109        H121   1.081       .  S
C110        H122   1.082       .  S
C111        C112   1.370       .  A
C111        H123   1.083   1_655  S
C112        H124   1.082   1_655  S
C113        C114   1.372       .  A
C113        H125   1.083       .  S
C114        H126   1.083       .  S
C115       C1531   1.480       .  S
C116       C1558   1.484       .  S
C117       C1543   1.475       .  S
C118       C1519   1.484       .  S
N129        C134   1.350       .  A
N129        C133   1.350       .  A
N129        H161   1.036       .  S
N130        C137   1.351       .  A
N130        C138   1.350       .  A
N131        C136   1.350       .  A
N131        C135   1.350       .  A
N131        H162   1.039       .  S
N132        C139   1.350       .  A
N132        C140   1.350       .  A
C133        C141   1.387       .  A
C133        C149   1.411       .  A
C134        C150   1.411       .  A
C134        C142   1.386       .  A
C135        C143   1.386       .  A
C135        C152   1.407       .  A
C136        C151   1.408       .  A
C136        C144   1.386       .  A
C137        C149   1.412       .  A
C137        C145   1.386       .  A
C138        C152   1.411       .  A
C138        C146   1.387       .  A
C139        C147   1.387       .  A
C139        C150   1.411       .  A
C140        C148   1.386       .  A
C140        C151   1.409       .  A
C141        C142   1.375       .  A
C141        H153   1.083       .  S
C142        H154   1.082       .  S
C143        C144   1.374       .  A
C143        H155   1.082       .  S
C144        H156   1.082       .  S
C145        C146   1.373       .  A
C145        H157   1.082       .  S
C146        H158   1.082       .  S
C147        C148   1.371       .  A
C147        H159   1.082       .  S
C148        H160   1.082       .  S
C149       C1483   1.481       .  S
C150       C1507   1.478       .  S
C151       C1495   1.479       .  S
C152       C1471   1.477       .  S
O163        C166   1.265       .  A
O163       Cd168   2.477       .  S
C164       C1459   1.479       .  S
C164        O173   1.267       .  A
C164        O169   1.267       .  A
O165        C171   1.268       .  A
O165       Cd168   2.494       .  S
C166       C1510   1.479       .  S
C166        O174   1.264       .  A
C167       C1447   1.476       .  S
C167        O172   1.268       .  A
C167        O170   1.262       .  A
Cd168       O175   2.419       .  S
Cd168       O174   2.436       .  S
Cd168       O173   2.439       .  S
Cd168       O169   2.443       .  S
Cd168       O172   2.476       .  S
Cd168       O170   2.413       .  S
C171       C1555   1.481       .  S
C171        O175   1.264       .  A
O176        C179   1.267       .  A
O176       Cd181   2.445       .  S
C177       C1534   1.477   1_455  S
C177        O186   1.265   1_455  A
C177        O182   1.267       .  A
O178        C184   1.269       .  A
O178       Cd181   2.490   1_655  S
C179       C1423   1.470       .  S
C179        O187   1.265       .  A
C180       C1435   1.482       .  S
C180        O185   1.270       .  A
C180        O183   1.264       .  A
Cd181       O188   2.404   1_455  S
Cd181       O187   2.405       .  S
Cd181       O186   2.421   1_455  S
Cd181       O182   2.468       .  S
Cd181       O185   2.485       .  S
Cd181       O183   2.415       .  S
C184       C1486   1.476       .  S
C184        O188   1.263       .  A
N189        C194   1.355       .  A
N189        C193   1.357       .  A
N189        H221   1.038       .  S
N190        C197   1.351       .  A
N190        C198   1.351       .  A
N191        C196   1.353       .  A
N191        C195   1.349       .  A
N191        H222   1.037       .  S
N192        C199   1.348       .  A
N192        C200   1.352       .  A
C193        C201   1.387       .  A
C193        C209   1.418       .  A
C194        C210   1.417       .  A
C194        C202   1.389       .  A
C195        C203   1.388       .  A
C195        C212   1.411       .  A
C196        C211   1.411       .  A
C196        C204   1.386       .  A
C197        C209   1.413       .  A
C197        C205   1.387       .  A
C198        C212   1.413       .  A
C198        C206   1.386       .  A
C199        C207   1.389       .  A
C199        C210   1.414       .  A
C200        C208   1.385       .  A
C200        C211   1.412       .  A
C201        C202   1.367       .  A
C201        H213   1.082       .  S
C202        H214   1.082       .  S
C203        C204   1.371       .  A
C203        H215   1.083       .  S
C204        H216   1.082       .  S
C205        C206   1.367       .  A
C205        H217   1.083       .  S
C206        H218   1.082       .  S
C207        C208   1.367       .  A
C207        H219   1.083       .  S
C208        H220   1.082       .  S
C209       C1387   1.485       .  S
C210       C1414   1.476       .  S
C211       C1402   1.484       .  S
C212       C1378   1.477       .  S
N223        C228   1.348       .  A
N223        C227   1.350       .  A
N223        H255   1.038       .  S
N224        C231   1.353       .  A
N224        C232   1.350       .  A
N225        C230   1.351       .  A
N225        C229   1.349       .  A
N225        H256   1.038       .  S
N226        C233   1.348       .  A
N226        C234   1.349       .  A
C227        C235   1.386       .  A
C227        C243   1.409       .  A
C228        C244   1.408       .  A
C228        C236   1.387       .  A
C229        C237   1.387       .  A
C229        C246   1.410       .  A
C230        C245   1.412       .  A
C230        C238   1.387       .  A
C231        C243   1.409       .  A
C231        C239   1.384       .  A
C232        C246   1.413       .  A
C232        C240   1.388       .  A
C233        C241   1.387       .  A
C233        C244   1.409       .  A
C234        C242   1.386       .  A
C234        C245   1.409       .  A
C235        C236   1.376       .  A
C235        H247   1.082       .  S
C236        H248   1.082       .  S
C237        C238   1.378       .  A
C237        H249   1.082       .  S
C238        H250   1.083       .  S
C239        C240   1.370       .  A
C239        H251   1.082       .  S
C240        H252   1.082       .  S
C241        C242   1.372       .  A
C241        H253   1.082       .  S
C242        H254   1.082       .  S
C243       C1351   1.484       .  S
C244       C1363   1.472       .  S
C245       C1327   1.481       .  S
C246       C1342   1.479       .  S
O257        C260   1.268       .  A
O257       Cd262   2.456       .  S
C258       C1315   1.467   1_455  S
C258        O267   1.265       .  A
C258        O263   1.268       .  A
O259        C265   1.268       .  A
O259       Cd262   2.459       .  S
C260       C1411   1.470       .  S
C260        O268   1.263       .  A
C261       C1303   1.472       .  S
C261        O266   1.268       .  A
C261        O264   1.265       .  A
Cd262       O269   2.404       .  S
Cd262       O268   2.378       .  S
Cd262       O267   2.395       .  S
Cd262       O263   2.437       .  S
Cd262       O266   2.457       .  S
Cd262       O264   2.423       .  S
C265       C1366   1.474       .  S
C265        O269   1.264       .  A
O270        C273   1.269       .  A
O270       Cd275   2.478       .  S
C271       C1354   1.483       .  S
C271        O280   1.264       .  A
C271        O276   1.268       .  A
O272        C278   1.269       .  A
O272       Cd275   2.505       .  S
C273       C1291   1.475       .  S
C273        O281   1.264       .  A
C274       C1279   1.483       .  S
C274        O279   1.270       .  A
C274        O277   1.265       .  A
Cd275       O282   2.406       .  S
Cd275       O281   2.421       .  S
Cd275       O280   2.436       .  S
Cd275       O276   2.499       .  S
Cd275       O279   2.464       .  S
Cd275       O277   2.442       .  S
C278       C1390   1.483       .  S
C278        O282   1.264       .  A
N283        C288   1.350       .  A
N283        C287   1.350       .  A
N283        H315   1.038       .  S
N284        C291   1.350       .  A
N284        C292   1.349       .  A
N285        C290   1.350       .  A
N285        C289   1.350       .  A
N285        H316   1.038       .  S
N286        C293   1.351       .  A
N286        C294   1.351       .  A
C287        C295   1.386       .  A
C287        C303   1.409       .  A
C288        C304   1.411       .  A
C288        C296   1.387       .  A
C289        C297   1.386       .  A
C289        C306   1.409       .  A
C290        C305   1.410       .  A
C290        C298   1.387       .  A
C291        C303   1.408       .  A
C291        C299   1.386       .  A
C292        C306   1.411       .  A
C292        C300   1.387       .  A
C293        C301   1.387       .  A
C293        C304   1.413       .  A
C294        C302   1.386       .  A
C294        C305   1.412       .  A
C295        C296   1.376       .  A
C295        H307   1.082       .  S
C296        H308   1.082       .  S
C297        C298   1.376       .  A
C297        H309   1.082       .  S
C298        H310   1.082       .  S
C299        C300   1.371       .  A
C299        H311   1.082       .  S
C300        H312   1.082       .  S
C301        C302   1.370       .  A
C301        H313   1.082       .  S
C302        H314   1.082       .  S
C303       C1267   1.476       .  S
C304       C1255   1.482       .  S
C305       C1246   1.483       .  S
C306       C1579   1.477       .  S
N317        C322   1.350       .  A
N317        C321   1.349       .  A
N317        H349   1.036       .  S
N318        C325   1.351       .  A
N318        C326   1.350       .  A
N319        C324   1.350       .  A
N319        C323   1.348       .  A
N319        H350   1.038       .  S
N320        C327   1.348       .  A
N320        C328   1.348       .  A
C321        C329   1.386       .  A
C321        C337   1.407       .  A
C322        C338   1.411       .  A
C322        C330   1.387       .  A
C323        C331   1.387       .  A
C323        C340   1.407       .  A
C324        C339   1.408       .  A
C324        C332   1.386       .  A
C325        C337   1.411       .  A
C325        C333   1.386       .  A
C326        C340   1.412       .  A
C326        C334   1.387       .  A
C327        C335   1.387       .  A
C327        C338   1.409       .  A
C328        C336   1.386       .  A
C328        C339   1.408       .  A
C329        C330   1.375       .  A
C329        H341   1.083       .  S
C330        H342   1.082       .  S
C331        C332   1.374       .  A
C331        H343   1.083       .  S
C332        H344   1.082       .  S
C333        C334   1.372       .  A
C333        H345   1.082       .  S
C334        H346   1.082       .  S
C335        C336   1.372       .  A
C335        H347   1.082       .  S
C336        H348   1.082       .  S
C337       C1231   1.478       .  S
C338       C1219   1.477       .  S
C339       C1207   1.477       .  S
C340       C1318   1.477       .  S
O351        C354   1.268       .  A
O351       Cd356   2.477       .  S
C352       C1195   1.480       .  S
C352        O361   1.265       .  A
C352        O357   1.268       .  A
O353        C359   1.266       .  A
O353       Cd356   2.444       .  S
C354       C1270   1.478       .  S
C354        O362   1.263       .  A
C355       C1222   1.476       .  S
C355        O360   1.266       .  A
C355        O358   1.263       .  A
Cd356       O363   2.427       .  S
Cd356       O362   2.416       .  S
Cd356       O361   2.428       .  S
Cd356       O357   2.472       .  S
Cd356       O360   2.474       .  S
Cd356       O358   2.414       .  S
C359       C1666   1.467       .  S
C359        O363   1.265       .  A
O364        C367   1.268       .  A
O364       Cd369   2.450       .  S
C365       C1258   1.475   1_455  S
C365        O374   1.265   1_455  A
C365        O370   1.268       .  A
O366        C372   1.268       .  A
O366       Cd369   2.466       .  S
C367       C1330   1.476       .  S
C367        O375   1.264       .  A
C368       C1234   1.480       .  S
C368        O373   1.269       .  A
C368        O371   1.264   1_655  A
Cd369       O376   2.431       .  S
Cd369       O375   2.429       .  S
Cd369       O374   2.414   1_455  S
Cd369       O370   2.471       .  S
Cd369       O373   2.475   1_455  S
Cd369       O371   2.413       .  S
C372       C1183   1.477       .  S
C372        O376   1.264       .  A
N377        C382   1.353       .  A
N377        C381   1.353       .  A
N377        H409   1.040       .  S
N378        C385   1.347       .  A
N378        C386   1.349       .  A
N379        C384   1.349       .  A
N379        C383   1.353       .  A
N379        H410   1.038       .  S
N380        C387   1.350       .  A
N380        C388   1.351       .  A
C381        C389   1.387       .  A
C381        C397   1.412       .  A
C382        C398   1.413       .  A
C382        C390   1.388       .  A
C383        C391   1.386       .  A
C383        C400   1.410       .  A
C384        C399   1.412       .  A
C384        C392   1.389       .  A
C385        C397   1.406       .  A
C385        C393   1.386       .  A
C386        C400   1.407       .  A
C386        C394   1.386       .  A
C387        C395   1.386       .  A
C387        C398   1.409       .  A
C388        C396   1.387       .  A
C388        C399   1.412       .  A
C389        C390   1.371       .  A
C389        H401   1.082       .  S
C390        H402   1.082       .  S
C391        C392   1.370       .  A
C391        H403   1.082       .  S
C392        H404   1.082       .  S
C393        C394   1.369       .  A
C393        H405   1.083       .  S
C394        H406   1.082       .  S
C395        C396   1.370       .  A
C395        H407   1.083       .  S
C396        H408   1.082       .  S
C397       C1159   1.475       .  S
C398       C1174   1.478       .  S
C399       C1147   1.474       .  S
C400       C1294   1.480       .  S
N411        C416   1.348       .  A
N411        C415   1.349       .  A
N411        H443   1.038       .  S
N412        C419   1.350       .  A
N412        C420   1.348       .  A
N413        C418   1.351       .  A
N413        C417   1.351       .  A
N413        H444   1.039       .  S
N414        C421   1.350       .  A
N414        C422   1.350       .  A
C415        C423   1.386       .  A
C415        C431   1.407       .  A
C416        C432   1.408       .  A
C416        C424   1.387       .  A
C417        C425   1.386       .  A
C417        C434   1.411       .  A
C418        C433   1.411       .  A
C418        C426   1.387       .  A
C419        C431   1.407       .  A
C419        C427   1.386       .  A
C420        C434   1.408       .  A
C420        C428   1.386       .  A
C421        C429   1.387       .  A
C421        C432   1.411       .  A
C422        C430   1.386       .  A
C422        C433   1.410       .  A
C423        C424   1.377       .  A
C423        H435   1.082       .  S
C424        H436   1.082       .  S
C425        C426   1.378       .  A
C425        H437   1.082       .  S
C426        H438   1.082       .  S
C427        C428   1.372       .  A
C427        H439   1.082       .  S
C428        H440   1.082       .  S
C429        C430   1.374       .  A
C429        H441   1.082       .  S
C430        H442   1.082       .  S
C431       C1123   1.476       .  S
C432       C1135   1.477       .  S
C433       C1111   1.481       .  S
C434       C1462   1.480       .  S
O445        C448   1.264       .  A
O445       Cd450   2.486   1_554  S
C446       C1546   1.470       .  S
C446        O455   1.265       .  A
C446        O451   1.262       .  A
O447        C453   1.268       .  A
O447       Cd450   2.478       .  S
C448       C1171   1.476       .  S
C448        O456   1.261       .  A
C449       C1099   1.474       .  S
C449        O454   1.266   1_554  A
C449        O452   1.265       .  A
Cd450       O457   2.402       .  S
Cd450       O456   2.406   1_556  S
Cd450       O455   2.444       .  S
Cd450       O451   2.414       .  S
Cd450       O454   2.424       .  S
Cd450       O452   2.440   1_556  S
C453       C1126   1.478       .  S
C453        O457   1.265       .  A
O458        C461   1.268       .  A
O458       Cd463   2.460       .  S
C459       C1162   1.473       .  S
C459        O468   1.264       .  A
C459        O464   1.267       .  A
O460        C466   1.267       .  A
O460       Cd463   2.471       .  S
C461       C1090   1.476       .  S
C461        O469   1.265       .  A
C462       C1375   1.470       .  S
C462        O467   1.268       .  A
C462        O465   1.264       .  A
Cd463       O470   2.406       .  S
Cd463       O469   2.421       .  S
Cd463       O468   2.418   1_556  S
Cd463       O464   2.449   1_556  S
Cd463       O467   2.448   1_556  S
Cd463       O465   2.413   1_556  S
C466       C1138   1.475       .  S
C466        O470   1.263       .  A
N471        C476   1.351       .  A
N471        C475   1.350       .  A
N471        H503   1.034       .  S
N472        C479   1.349       .  A
N472        C480   1.350       .  A
N473        C478   1.348       .  A
N473        C477   1.352       .  A
N473        H504   1.034       .  S
N474        C481   1.352       .  A
N474        C482   1.351       .  A
C475        C483   1.387       .  A
C475        C491   1.412       .  A
C476        C492   1.411       .  A
C476        C484   1.386       .  A
C477        C485   1.386       .  A
C477        C494   1.411       .  A
C478        C493   1.409       .  A
C478        C486   1.387       .  A
C479        C491   1.410       .  A
C479        C487   1.387       .  A
C480        C494   1.410       .  A
C480        C488   1.386       .  A
C481        C489   1.386       .  A
C481        C492   1.412       .  A
C482        C490   1.387       .  A
C482        C493   1.413       .  A
C483        C484   1.377       .  A
C483        H495   1.082       .  S
C484        H496   1.082       .  S
C485        C486   1.376       .  A
C485        H497   1.082       .  S
C486        H498   1.082       .  S
C487        C488   1.369       .  A
C487        H499   1.082   1_565  S
C488        H500   1.082   1_565  S
C489        C490   1.371       .  A
C489        H501   1.082       .  S
C490        H502   1.082       .  S
C491       C1063   1.477       .  S
C492       C1075   1.480       .  S
C493       C1102   1.473       .  S
C494       C1570   1.480       .  S
N505        C510   1.351       .  A
N505        C509   1.348       .  A
N505        H537   1.036       .  S
N506        C513   1.352       .  A
N506        C514   1.352       .  A
N507        C512   1.350       .  A
N507        C511   1.351       .  A
N507        H538   1.037       .  S
N508        C515   1.350       .  A
N508        C516   1.348       .  A
C509        C517   1.387       .  A
C509        C525   1.411       .  A
C510        C526   1.410       .  A
C510        C518   1.386       .  A
C511        C519   1.387       .  A
C511        C528   1.412       .  A
C512        C527   1.410       .  A
C512        C520   1.387       .  A
C513        C525   1.413       .  A
C513        C521   1.386       .  A
C514        C528   1.414       .  A
C514        C522   1.386       .  A
C515        C523   1.386       .  A
C515        C526   1.410       .  A
C516        C524   1.387       .  A
C516        C527   1.410       .  A
C517        C518   1.375       .  A
C517        H529   1.082       .  S
C518        H530   1.082       .  S
C519        C520   1.376       .  A
C519        H531   1.082       .  S
C520        H532   1.082       .  S
C521        C522   1.371       .  A
C521        H533   1.082       .  S
C522        H534   1.082       .  S
C523        C524   1.371       .  A
C523        H535   1.082       .  S
C524        H536   1.082       .  S
C525       C1042   1.481       .  S
C526       C1054   1.478       .  S
C527       C1450   1.474       .  S
C528       C1198   1.486       .  S
O539        C542   1.268       .  A
O539       Cd544   2.473       .  S
C540       C1150   1.464       .  S
C540        O549   1.264       .  A
C540        O545   1.268       .  A
O541        C547   1.270       .  A
O541       Cd544   2.494       .  S
C542       C1051   1.478       .  S
C542        O550   1.265       .  A
C543       C1498   1.477       .  S
C543        O548   1.271       .  A
C543        O546   1.265       .  A
Cd544       O551   2.400       .  S
Cd544       O550   2.403       .  S
Cd544       O549   2.418       .  S
Cd544       O545   2.439       .  S
Cd544       O548   2.460       .  S
Cd544       O546   2.402       .  S
C547       C1078   1.482       .  S
C547        O551   1.262       .  A
O552        C555   1.268       .  A
O552       Cd557   2.456       .  S
C553       C1210   1.475       .  S
C553        O562   1.265       .  A
C553        O558   1.268       .  A
O554        C560   1.270       .  A
O554       Cd557   2.472       .  S
C555       C1066   1.478       .  S
C555        O563   1.266       .  A
C556       C1039   1.482   1_545  S
C556        O561   1.270       .  A
C556        O559   1.263       .  A
Cd557       O564   2.420       .  S
Cd557       O563   2.425       .  S
Cd557       O562   2.405       .  S
Cd557       O558   2.460       .  S
Cd557       O561   2.502       .  S
Cd557       O559   2.397       .  S
C560       C1618   1.481       .  S
C560        O564   1.264       .  A
N565        C570   1.351       .  A
N565        C569   1.351       .  A
N565        H597   1.035       .  S
N566        C573   1.353       .  A
N566        C574   1.351       .  A
N567        C572   1.352       .  A
N567        C571   1.351       .  A
N567        H598   1.036       .  S
N568        C575   1.352       .  A
N568        C576   1.352       .  A
C569        C577   1.385       .  A
C569        C585   1.410       .  A
C570        C586   1.414       .  A
C570        C578   1.388       .  A
C571        C579   1.387       .  A
C571        C588   1.412       .  A
C572        C587   1.412       .  A
C572        C580   1.387       .  A
C573        C585   1.412       .  A
C573        C581   1.385       .  A
C574        C588   1.413       .  A
C574        C582   1.387       .  A
C575        C583   1.388       .  A
C575        C586   1.417       .  A
C576        C584   1.385       .  A
C576        C587   1.413       .  A
C577        C578   1.377       .  A
C577        H589   1.082       .  S
C578        H590   1.082       .  S
C579        C580   1.376       .  A
C579        H591   1.082       .  S
C580        H592   1.082       .  S
C581        C582   1.370       .  A
C581        H593   1.082       .  S
C582        H594   1.082       .  S
C583        C584   1.372       .  A
C583        H595   1.082       .  S
C584        H596   1.082       .  S
C585       C1015   1.484       .  S
C586       C1027   1.487       .  S
C587       C1438   1.485       .  S
C588       C1186   1.482       .  S
O599        C602   1.269   1_556  A
O599       Cd604   2.455       .  S
C600       C1030   1.481       .  S
C600        O609   1.263       .  A
C600        O605   1.265       .  A
O601        C607   1.268       .  A
O601       Cd604   2.485   1_554  S
C602        C991   1.480       .  S
C602        O610   1.266       .  A
C603       C1522   1.478   1_455  S
C603        O608   1.267   1_455  A
C603        O606   1.263       .  A
Cd604       O611   2.426   1_556  S
Cd604       O610   2.431   1_556  S
Cd604       O609   2.438       .  S
Cd604       O605   2.493       .  S
Cd604       O608   2.487   1_455  S
Cd604       O606   2.432       .  S
C607       C1006   1.479       .  S
C607        O611   1.264       .  A
N612        C617   1.354       .  A
N612        C616   1.354       .  A
N612        H644   1.041       .  S
N613        C620   1.351       .  A
N613        C621   1.350       .  A
N614        C619   1.353   1_655  A
N614        C618   1.352   1_655  A
N614        H645   1.038       .  S
N615        C622   1.350       .  A
N615        C623   1.351       .  A
C616        C624   1.388   1_655  A
C616        C632   1.415       .  A
C617        C633   1.411       .  A
C617        C625   1.386   1_655  A
C618        C626   1.388       .  A
C618        C635   1.414   1_455  A
C619        C634   1.414       .  A
C619        C627   1.387       .  A
C620        C632   1.411       .  A
C620        C628   1.385       .  A
C621        C635   1.412       .  A
C621        C629   1.387       .  A
C622        C630   1.386       .  A
C622        C633   1.408       .  A
C623        C631   1.387       .  A
C623        C634   1.412   1_655  A
C624        C625   1.370       .  A
C624        H636   1.082       .  S
C625        H637   1.082       .  S
C626        C627   1.373       .  A
C626        H638   1.082       .  S
C627        H639   1.082       .  S
C628        C629   1.371       .  A
C628        H640   1.082       .  S
C629        H641   1.082       .  S
C630        C631   1.369       .  A
C630        H642   1.083       .  S
C631        H643   1.082       .  S
C632       C1003   1.485       .  S
C633        C979   1.480   1_655  S
C634       C1306   1.481       .  S
C635        C967   1.479   1_655  S
O646        C649   1.268       .  A
O646       Cd651   2.477   1_554  S
C647       C1243   1.480       .  S
C647        O656   1.265       .  A
C647        O652   1.268       .  A
O648        C654   1.269       .  A
O648       Cd651   2.507       .  S
C649        C982   1.482       .  S
C649        O657   1.265       .  A
C650       C1399   1.479       .  S
C650        O655   1.269       .  A
C650        O653   1.265       .  A
Cd651       O658   2.422       .  S
Cd651       O657   2.436   1_556  S
Cd651       O656   2.433       .  S
Cd651       O652   2.467       .  S
Cd651       O655   2.473   1_556  S
Cd651       O653   2.439   1_556  S
C654       C1018   1.485       .  S
C654        O658   1.262       .  A
N659        C664   1.352       .  A
N659        C663   1.349       .  A
N659        H691   1.039       .  S
N660        C667   1.349       .  A
N660        C668   1.351       .  A
N661        C666   1.349       .  A
N661        C665   1.350       .  A
N661        H692   1.038       .  S
N662        C669   1.351       .  A
N662        C670   1.349       .  A
C663        C671   1.387       .  A
C663        C679   1.411       .  A
C664        C680   1.412       .  A
C664        C672   1.386       .  A
C665        C673   1.386       .  A
C665        C682   1.409       .  A
C666        C681   1.412       .  A
C666        C674   1.388       .  A
C667        C679   1.410       .  A
C667        C675   1.387       .  A
C668        C682   1.410       .  A
C668        C676   1.386       .  A
C669        C677   1.385   1_565  A
C669        C680   1.410       .  A
C670        C678   1.387   1_565  A
C670        C681   1.411       .  A
C671        C672   1.378       .  A
C671        H683   1.082       .  S
C672        H684   1.082       .  S
C673        C674   1.376       .  A
C673        H685   1.082       .  S
C674        H686   1.082       .  S
C675        C676   1.371       .  A
C675        H687   1.082       .  S
C676        H688   1.082       .  S
C677        C678   1.372       .  A
C677        H689   1.082       .  S
C678        H690   1.082       .  S
C679        C958   1.477       .  S
C680        C943   1.488       .  S
C681       C1606   1.479       .  S
C682        C994   1.481       .  S
N693        C698   1.350       .  A
N693        C697   1.351       .  A
N693        H725   1.037       .  S
N694        C701   1.350       .  A
N694        C702   1.349       .  A
N695        C700   1.349       .  A
N695        C699   1.347       .  A
N695        H726   1.039       .  S
N696        C703   1.348       .  A
N696        C704   1.349       .  A
C697        C705   1.386       .  A
C697        C713   1.411       .  A
C698        C714   1.412       .  A
C698        C706   1.387       .  A
C699        C707   1.387       .  A
C699        C716   1.405       .  A
C700        C715   1.406       .  A
C700        C708   1.386       .  A
C701        C713   1.409       .  A
C701        C709   1.386       .  A
C702        C716   1.409       .  A
C702        C710   1.387       .  A
C703        C711   1.387       .  A
C703        C714   1.408       .  A
C704        C712   1.385       .  A
C704        C715   1.407       .  A
C705        C706   1.378       .  A
C705        H717   1.082       .  S
C706        H718   1.082       .  S
C707        C708   1.375       .  A
C707        H719   1.082       .  S
C708        H720   1.082       .  S
C709        C710   1.370       .  A
C709        H721   1.082       .  S
C710        H722   1.082       .  S
C711        C712   1.370       .  A
C711        H723   1.082       .  S
C712        H724   1.082       .  S
C713        C919   1.481       .  S
C714        C931   1.475       .  S
C715        C907   1.478       .  S
C716       C1426   1.473       .  S
O727        C730   1.268       .  A
O727       Cd732   2.463   1_655  S
C728        C955   1.472       .  S
C728        O737   1.263       .  A
C728        O733   1.268       .  A
O729        C735   1.267       .  A
O729       Cd732   2.490       .  S
C730       C1474   1.472       .  S
C730        O738   1.265   1_655  A
C731        C970   1.471       .  S
C731        O736   1.266       .  A
C731        O734   1.264       .  A
Cd732       O739   2.427       .  S
Cd732       O738   2.411       .  S
Cd732       O737   2.396       .  S
Cd732       O733   2.484       .  S
Cd732       O736   2.456       .  S
Cd732       O734   2.448       .  S
C735        C922   1.483       .  S
C735        O739   1.263       .  A
O740        C743   1.268       .  A
O740       Cd745   2.452       .  S
C741        C946   1.480       .  S
C741        O750   1.264       .  A
C741        O746   1.269       .  A
O742        C748   1.268       .  A
O742       Cd745   2.457       .  S
C743        C898   1.475       .  S
C743        O751   1.265       .  A
C744        C934   1.479       .  S
C744        O749   1.268       .  A
C744        O747   1.265       .  A
Cd745       O752   2.433       .  S
Cd745       O751   2.434       .  S
Cd745       O750   2.422       .  S
Cd745       O746   2.495       .  S
Cd745       O749   2.479       .  S
Cd745       O747   2.413       .  S
C748       C1627   1.475       .  S
C748        O752   1.264       .  A
N753        C758   1.351       .  A
N753        C757   1.349       .  A
N753        H785   1.039       .  S
N754        C761   1.350       .  A
N754        C762   1.351       .  A
N755        C760   1.349       .  A
N755        C759   1.351       .  A
N755        H786   1.038       .  S
N756        C763   1.352       .  A
N756        C764   1.349       .  A
C757        C765   1.387       .  A
C757        C773   1.409       .  A
C758        C774   1.409       .  A
C758        C766   1.385       .  A
C759        C767   1.386       .  A
C759        C776   1.410       .  A
C760        C775   1.411       .  A
C760        C768   1.388       .  A
C761        C773   1.411       .  A
C761        C769   1.387       .  A
C762        C776   1.411       .  A
C762        C770   1.386       .  A
C763        C771   1.385       .  A
C763        C774   1.410       .  A
C764        C772   1.388       .  A
C764        C775   1.412       .  A
C765        C766   1.376       .  A
C765        H777   1.082       .  S
C766        H778   1.082       .  S
C767        C768   1.377       .  A
C767        H779   1.082       .  S
C768        H780   1.082       .  S
C769        C770   1.372       .  A
C769        H781   1.082       .  S
C770        H782   1.082       .  S
C771        C772   1.373       .  A
C771        H783   1.082       .  S
C772        H784   1.082       .  S
C773        C874   1.479       .  S
C774        C886   1.486       .  S
C775       C1594   1.477       .  S
C776       C1087   1.483       .  S
N787        C792   1.350       .  A
N787        C791   1.350       .  A
N787        H819   1.038       .  S
N788        C795   1.349       .  A
N788        C796   1.349       .  A
N789        C794   1.351       .  A
N789        C793   1.351       .  A
N789        H820   1.039       .  S
N790        C797   1.352       .  A
N790        C798   1.351       .  A
C791        C799   1.386       .  A
C791        C807   1.410       .  A
C792        C808   1.411       .  A
C792        C800   1.387       .  A
C793        C801   1.385       .  A
C793        C810   1.410       .  A
C794        C809   1.413       .  A
C794        C802   1.387       .  A
C795        C807   1.407       .  A
C795        C803   1.387       .  A
C796        C810   1.408       .  A
C796        C804   1.387       .  A
C797        C805   1.386       .  A
C797        C808   1.413       .  A
C798        C806   1.387       .  A
C798        C809   1.414       .  A
C799        C800   1.377       .  A
C799        H811   1.083       .  S
C800        H812   1.082       .  S
C801        C802   1.378       .  A
C801        H813   1.082       .  S
C802        H814   1.082       .  S
C803        C804   1.368       .  A
C803        H815   1.082       .  S
C804        H816   1.082       .  S
C805        C806   1.372       .  A
C805        H817   1.082       .  S
C806        H818   1.082       .  S
C807        C862   1.476       .  S
C808        C847   1.482       .  S
C809       C1282   1.485       .  S
C810        C895   1.478       .  S
O821        C824   1.270       .  A
O821       Cd826   2.456       .  S
C822        C883   1.481       .  S
C822        O831   1.263       .  A
C822        O827   1.269       .  A
O823        C829   1.267       .  A
O823       Cd826   2.441       .  S
C824        C910   1.477       .  S
C824        O832   1.264       .  A
C825        C859   1.475       .  S
C825        O830   1.268       .  A
C825        O828   1.264       .  A
Cd826       O833   2.407       .  S
Cd826       O832   2.418       .  S
Cd826       O831   2.422       .  S
Cd826       O827   2.501       .  S
Cd826       O830   2.473       .  S
Cd826       O828   2.393       .  S
C829       C1678   1.465       .  S
C829        O833   1.264       .  A
O834        C837   1.268       .  A
O834       Cd839   2.468       .  S
C835        C850   1.478       .  S
C835        O844   1.266       .  A
C835        O840   1.269       .  A
O836        C842   1.269       .  A
O836       Cd839   2.479       .  S
C837       C1114   1.479       .  S
C837        O845   1.264       .  A
C838       C1339   1.475       .  S
C838        O843   1.268       .  A
C838        O841   1.264       .  A
Cd839       O846   2.389       .  S
Cd839       O845   2.441       .  S
Cd839       O844   2.445       .  S
Cd839       O840   2.454       .  S
Cd839       O843   2.460       .  S
Cd839       O841   2.415       .  S
C842        C871   1.471       .  S
C842        O846   1.264       .  A
C847        C848   1.402       .  A
C847        C852   1.405       .  A
C848        C849   1.399       .  A
C848        H853   1.084       .  S
C849        C850   1.412       .  A
C849        O854   1.372       .  S
C850        C851   1.405       .  A
C851        C852   1.399       .  A
C851        H855   1.083       .  S
C852        O856   1.371       .  S
O854        H858   0.992       .  S
O856        H857   0.992       .  S
C859        C860   1.407       .  A
C859        C864   1.412       .  A
C860        C861   1.402       .  A
C860        H865   1.083       .  S
C861        C862   1.406       .  A
C861        O866   1.372       .  S
C862        C863   1.397       .  A
C863        C864   1.390       .  A
C863        H867   1.084       .  S
C864        O868   1.372       .  S
O866        H870   0.992       .  S
O868        H869   0.992       .  S
C871        C872   1.405       .  A
C871        C876   1.410       .  A
C872        C873   1.402       .  A
C872        H877   1.083       .  S
C873        C874   1.406       .  A
C873        O878   1.372       .  S
C874        C875   1.400       .  A
C875        C876   1.391       .  A
C875        H879   1.084       .  S
C876        O880   1.372       .  S
O878        H882   0.992       .  S
O880        H881   0.992       .  S
C883        C884   1.406       .  A
C883        C888   1.412       .  A
C884        C885   1.404       .  A
C884        H889   1.083       .  S
C885        C886   1.407       .  A
C885        O890   1.371       .  S
C886        C887   1.400       .  A
C887        C888   1.397       .  A
C887        H891   1.084       .  S
C888        O892   1.372       .  S
O890        H894   0.992       .  S
O892        H893   0.992       .  S
C895        C896   1.400       .  A
C895        C900   1.405       .  A
C896        C897   1.397       .  A
C896        H901   1.084       .  S
C897        C898   1.409       .  A
C897        O902   1.371       .  S
C898        C899   1.407       .  A
C899        C900   1.398       .  A
C899        H903   1.084       .  S
C900        O904   1.372       .  S
O902        H906   0.992       .  S
O904        H905   0.992       .  S
C907        C908   1.399       .  A
C907        C912   1.405       .  A
C908        C909   1.397   1_565  A
C908        H913   1.084       .  S
C909        C910   1.414       .  A
C909        O914   1.372       .  S
C910        C911   1.404   1_545  A
C911        C912   1.396       .  A
C911        H915   1.083   1_565  S
C912        O916   1.372       .  S
O914        H918   0.992       .  S
O916        H917   0.992       .  S
C919        C920   1.398       .  A
C919        C924   1.406       .  A
C920        C921   1.395       .  A
C920        H925   1.084       .  S
C921        C922   1.414       .  A
C921        O926   1.372       .  S
C922        C923   1.408       .  A
C923        C924   1.402       .  A
C923        H927   1.083       .  S
C924        O928   1.371       .  S
O926        H930   0.992       .  S
O928        H929   0.992       .  S
C931        C932   1.401       .  A
C931        C936   1.402       .  A
C932        C933   1.401       .  A
C932        H937   1.084       .  S
C933        C934   1.412   1_565  A
C933        O938   1.371   1_565  S
C934        C935   1.406   1_545  A
C935        C936   1.393       .  A
C935        H939   1.083   1_565  S
C936        O940   1.372       .  S
O938        H942   0.992       .  S
O940        H941   0.992       .  S
C943        C944   1.400       .  A
C943        C948   1.409   1_565  A
C944        C945   1.396       .  A
C944        H949   1.084       .  S
C945        C946   1.412   1_565  A
C945        O950   1.372       .  S
C946        C947   1.405       .  A
C947        C948   1.405       .  A
C947        H951   1.083       .  S
C948        O952   1.372       .  S
O950        H954   0.992       .  S
O952        H953   0.992       .  S
C955        C956   1.404       .  A
C955        C960   1.410       .  A
C956        C957   1.391       .  A
C956        H961   1.084       .  S
C957        C958   1.403       .  A
C957        O962   1.372       .  S
C958        C959   1.403       .  A
C959        C960   1.402       .  A
C959        H963   1.083       .  S
C960        O964   1.371       .  S
O962        H966   0.992       .  S
O964        H965   0.992       .  S
C967        C968   1.400   1_455  A
C967        C972   1.406       .  A
C968        C969   1.400       .  A
C968        H973   1.083       .  S
C969        C970   1.411   1_655  A
C969        O974   1.371       .  S
C970        C971   1.402       .  A
C971        C972   1.396       .  A
C971        H975   1.084       .  S
C972        O976   1.372       .  S
O974        H978   0.992       .  S
O976        H977   0.992       .  S
C979        C980   1.399       .  A
C979        C984   1.403   1_455  A
C980        C981   1.395       .  A
C980        H985   1.084       .  S
C981        C982   1.414       .  A
C981        O986   1.371       .  S
C982        C983   1.408   1_455  A
C983        C984   1.401       .  A
C983        H987   1.083       .  S
C984        O988   1.371       .  S
O986        H990   0.992       .  S
O988        H989   0.992       .  S
C991        C992   1.405       .  A
C991        C996   1.414       .  A
C992        C993   1.397       .  A
C992        H997   1.083       .  S
C993        C994   1.405       .  A
C993        O998   1.372       .  S
C994        C995   1.400       .  A
C995        C996   1.399       .  A
C995        H999   1.084       .  S
C996       O1000   1.372       .  S
O998       H1002   0.992       .  S
O1000      H1001   0.992       .  S
C1003      C1004   1.400   1_655  A
C1003      C1008   1.407       .  A
C1004      C1005   1.395       .  A
C1004      H1009   1.084       .  S
C1005      C1006   1.412       .  A
C1005      O1010   1.372       .  S
C1006      C1007   1.406   1_455  A
C1007      C1008   1.402       .  A
C1007      H1011   1.083       .  S
C1008      O1012   1.372       .  S
O1010      H1014   0.992       .  S
O1012      H1013   0.992       .  S
C1015      C1016   1.399       .  A
C1015      C1020   1.406       .  A
C1016      C1017   1.394       .  A
C1016      H1021   1.084       .  S
C1017      C1018   1.414       .  A
C1017      O1022   1.372       .  S
C1018      C1019   1.409       .  A
C1019      C1020   1.406       .  A
C1019      H1023   1.083       .  S
C1020      O1024   1.371       .  S
O1022      H1026   0.992       .  S
O1024      H1025   0.992       .  S
C1027      C1028   1.403       .  A
C1027      C1032   1.406       .  A
C1028      C1029   1.404       .  A
C1028      H1033   1.083       .  S
C1029      C1030   1.412       .  A
C1029      O1034   1.371       .  S
C1030      C1031   1.404       .  A
C1031      C1032   1.395       .  A
C1031      H1035   1.084       .  S
C1032      O1036   1.372       .  S
O1034      H1038   0.992       .  S
O1036      H1037   0.992       .  S
C1039      C1040   1.408       .  A
C1039      C1044   1.414       .  A
C1040      C1041   1.404       .  A
C1040      H1045   1.083       .  S
C1041      C1042   1.405       .  A
C1041      O1046   1.371       .  S
C1042      C1043   1.398       .  A
C1043      C1044   1.392       .  A
C1043      H1047   1.084       .  S
C1044      O1048   1.372       .  S
O1046      H1050   0.992       .  S
O1048      H1049   0.992       .  S
C1051      C1052   1.406       .  A
C1051      C1056   1.413       .  A
C1052      C1053   1.392       .  A
C1052      H1057   1.083       .  S
C1053      C1054   1.403       .  A
C1053      O1058   1.372       .  S
C1054      C1055   1.401       .  A
C1055      C1056   1.402       .  A
C1055      H1059   1.083       .  S
C1056      O1060   1.371       .  S
O1058      H1062   0.992       .  S
O1060      H1061   0.992       .  S
C1063      C1064   1.400   1_565  A
C1063      C1068   1.403       .  A
C1064      C1065   1.400       .  A
C1064      H1069   1.084       .  S
C1065      C1066   1.412       .  A
C1065      O1070   1.371       .  S
C1066      C1067   1.406   1_545  A
C1067      C1068   1.395       .  A
C1067      H1071   1.083       .  S
C1068      O1072   1.372       .  S
O1070      H1074   0.992       .  S
O1072      H1073   0.992       .  S
C1075      C1076   1.397       .  A
C1075      C1080   1.405       .  A
C1076      C1077   1.393       .  A
C1076      H1081   1.084       .  S
C1077      C1078   1.414       .  A
C1077      O1082   1.372       .  S
C1078      C1079   1.408       .  A
C1079      C1080   1.404       .  A
C1079      H1083   1.083       .  S
C1080      O1084   1.371       .  S
O1082      H1086   0.992       .  S
O1084      H1085   0.992       .  S
C1087      C1088   1.400       .  A
C1087      C1092   1.408       .  A
C1088      C1089   1.397       .  A
C1088      H1093   1.084       .  S
C1089      C1090   1.412       .  A
C1089      O1094   1.372       .  S
C1090      C1091   1.404       .  A
C1091      C1092   1.398       .  A
C1091      H1095   1.083       .  S
C1092      O1096   1.372       .  S
O1094      H1098   0.992       .  S
O1096      H1097   0.992       .  S
C1099      C1100   1.407       .  A
C1099      C1104   1.411       .  A
C1100      C1101   1.398       .  A
C1100      H1105   1.083       .  S
C1101      C1102   1.403       .  A
C1101      O1106   1.372       .  S
C1102      C1103   1.398       .  A
C1103      C1104   1.393       .  A
C1103      H1107   1.084       .  S
C1104      O1108   1.371       .  S
O1106      H1110   0.992       .  S
O1108      H1109   0.992       .  S
C1111      C1112   1.400       .  A
C1111      C1116   1.406       .  A
C1112      C1113   1.399       .  A
C1112      H1117   1.084       .  S
C1113      C1114   1.413       .  A
C1113      O1118   1.372       .  S
C1114      C1115   1.405       .  A
C1115      C1116   1.398       .  A
C1115      H1119   1.083       .  S
C1116      O1120   1.372       .  S
O1118      H1122   0.993       .  S
O1120      H1121   0.992       .  S
C1123      C1124   1.401       .  A
C1123      C1128   1.402       .  A
C1124      C1125   1.403       .  A
C1124      H1129   1.083       .  S
C1125      C1126   1.413       .  A
C1125      O1130   1.371       .  S
C1126      C1127   1.405       .  A
C1127      C1128   1.390       .  A
C1127      H1131   1.083       .  S
C1128      O1132   1.372       .  S
O1130      H1134   0.992       .  S
O1132      H1133   0.992       .  S
C1135      C1136   1.401       .  A
C1135      C1140   1.404       .  A
C1136      C1137   1.401       .  A
C1136      H1141   1.083       .  S
C1137      C1138   1.412       .  A
C1137      O1142   1.371       .  S
C1138      C1139   1.405       .  A
C1139      C1140   1.392       .  A
C1139      H1143   1.084       .  S
C1140      O1144   1.373       .  S
O1142      H1146   0.992       .  S
O1144      H1145   0.992       .  S
C1147      C1148   1.400       .  A
C1147      C1152   1.404       .  A
C1148      C1149   1.392       .  A
C1148      H1153   1.084       .  S
C1149      C1150   1.406       .  A
C1149      O1154   1.372       .  S
C1150      C1151   1.405       .  A
C1151      C1152   1.398       .  A
C1151      H1155   1.084       .  S
C1152      O1156   1.372       .  S
O1154      H1158   0.992       .  S
O1156      H1157   0.991       .  S
C1159      C1160   1.400       .  A
C1159      C1164   1.402       .  A
C1160      C1161   1.393       .  A
C1160      H1165   1.084       .  S
C1161      C1162   1.411       .  A
C1161      O1166   1.372       .  S
C1162      C1163   1.407       .  A
C1163      C1164   1.398       .  A
C1163      H1167   1.083       .  S
C1164      O1168   1.371       .  S
O1166      H1170   0.992       .  S
O1168      H1169   0.992       .  S
C1171      C1172   1.405       .  A
C1171      C1176   1.413       .  A
C1172      C1173   1.390       .  A
C1172      H1177   1.083       .  S
C1173      C1174   1.403       .  A
C1173      O1178   1.372       .  S
C1174      C1175   1.401       .  A
C1175      C1176   1.403       .  A
C1175      H1179   1.083       .  S
C1176      O1180   1.372       .  S
O1178      H1182   0.992       .  S
O1180      H1181   0.992       .  S
C1183      C1184   1.404       .  A
C1183      C1188   1.413       .  A
C1184      C1185   1.397       .  A
C1184      H1189   1.083       .  S
C1185      C1186   1.407       .  A
C1185      O1190   1.372       .  S
C1186      C1187   1.400       .  A
C1187      C1188   1.398       .  A
C1187      H1191   1.084       .  S
C1188      O1192   1.372       .  S
O1190      H1194   0.992       .  S
O1192      H1193   0.992       .  S
C1195      C1196   1.406   1_545  A
C1195      C1200   1.411   1_545  A
C1196      C1197   1.398       .  A
C1196      H1201   1.083       .  S
C1197      C1198   1.405       .  A
C1197      O1202   1.372       .  S
C1198      C1199   1.403       .  A
C1199      C1200   1.400       .  A
C1199      H1203   1.084       .  S
C1200      O1204   1.371   1_565  S
O1202      H1206   0.992       .  S
O1204      H1205   0.992   1_545  S
C1207      C1208   1.402       .  A
C1207      C1212   1.403       .  A
C1208      C1209   1.399       .  A
C1208      H1213   1.084       .  S
C1209      C1210   1.412       .  A
C1209      O1214   1.372       .  S
C1210      C1211   1.406       .  A
C1211      C1212   1.392       .  A
C1211      H1215   1.083       .  S
C1212      O1216   1.372       .  S
O1214      H1218   0.992       .  S
O1216      H1217   0.992       .  S
C1219      C1220   1.401       .  A
C1219      C1224   1.404       .  A
C1220      C1221   1.400       .  A
C1220      H1225   1.084       .  S
C1221      C1222   1.412       .  A
C1221      O1226   1.371       .  S
C1222      C1223   1.405       .  A
C1223      C1224   1.392       .  A
C1223      H1227   1.083       .  S
C1224      O1228   1.372       .  S
O1226      H1230   0.992       .  S
O1228      H1229   0.992       .  S
C1231      C1232   1.399       .  A
C1231      C1236   1.403       .  A
C1232      C1233   1.394       .  A
C1232      H1237   1.084       .  S
C1233      C1234   1.413       .  A
C1233      O1238   1.372       .  S
C1234      C1235   1.408       .  A
C1235      C1236   1.401       .  A
C1235      H1239   1.083       .  S
C1236      O1240   1.371       .  S
O1238      H1242   0.992       .  S
O1240      H1241   0.992       .  S
C1243      C1244   1.407       .  A
C1243      C1248   1.411   1_455  A
C1244      C1245   1.397   1_455  A
C1244      H1249   1.083       .  S
C1245      C1246   1.405       .  A
C1245      O1250   1.372   1_655  S
C1246      C1247   1.402       .  A
C1247      C1248   1.398       .  A
C1247      H1251   1.084       .  S
C1248      O1252   1.371       .  S
O1250      H1254   0.992       .  S
O1252      H1253   0.992       .  S
C1255      C1256   1.403       .  A
C1255      C1260   1.406       .  A
C1256      C1257   1.401   1_655  A
C1256      H1261   1.083   1_655  S
C1257      C1258   1.410   1_455  A
C1257      O1262   1.371       .  S
C1258      C1259   1.404       .  A
C1259      C1260   1.393       .  A
C1259      H1263   1.084       .  S
C1260      O1264   1.372       .  S
O1262      H1266   0.992       .  S
O1264      H1265   0.992       .  S
C1267      C1268   1.398       .  A
C1267      C1272   1.404       .  A
C1268      C1269   1.394       .  A
C1268      H1273   1.084       .  S
C1269      C1270   1.414       .  A
C1269      O1274   1.372       .  S
C1270      C1271   1.407       .  A
C1271      C1272   1.400       .  A
C1271      H1275   1.083       .  S
C1272      O1276   1.371       .  S
O1274      H1278   0.992       .  S
O1276      H1277   0.992       .  S
C1279      C1280   1.405       .  A
C1279      C1284   1.415       .  A
C1280      C1281   1.398       .  A
C1280      H1285   1.083       .  S
C1281      C1282   1.406       .  A
C1281      O1286   1.372       .  S
C1282      C1283   1.401       .  A
C1283      C1284   1.401       .  A
C1283      H1287   1.084       .  S
C1284      O1288   1.372       .  S
O1286      H1290   0.991       .  S
O1288      H1289   0.992       .  S
C1291      C1292   1.404       .  A
C1291      C1296   1.412       .  A
C1292      C1293   1.400       .  A
C1292      H1297   1.084       .  S
C1293      C1294   1.408       .  A
C1293      O1298   1.372       .  S
C1294      C1295   1.398       .  A
C1295      C1296   1.396       .  A
C1295      H1299   1.084       .  S
C1296      O1300   1.371       .  S
O1298      H1302   0.992       .  S
O1300      H1301   0.992       .  S
C1303      C1304   1.405       .  A
C1303      C1308   1.408       .  A
C1304      C1305   1.397   1_455  A
C1304      H1309   1.084   1_455  S
C1305      C1306   1.404   1_655  A
C1305      O1310   1.372       .  S
C1306      C1307   1.403       .  A
C1307      C1308   1.399       .  A
C1307      H1311   1.084       .  S
C1308      O1312   1.372       .  S
O1310      H1314   0.992       .  S
O1312      H1313   0.992       .  S
C1315      C1316   1.401       .  A
C1315      C1320   1.411       .  A
C1316      C1317   1.394       .  A
C1316      H1321   1.084       .  S
C1317      C1318   1.408       .  A
C1317      O1322   1.372       .  S
C1318      C1319   1.399       .  A
C1319      C1320   1.395       .  A
C1319      H1323   1.084       .  S
C1320      O1324   1.372       .  S
O1322      H1326   0.992       .  S
O1324      H1325   0.992       .  S
C1327      C1328   1.401       .  A
C1327      C1332   1.405       .  A
C1328      C1329   1.398       .  A
C1328      H1333   1.084       .  S
C1329      C1330   1.413       .  A
C1329      O1334   1.372       .  S
C1330      C1331   1.404       .  A
C1331      C1332   1.396       .  A
C1331      H1335   1.083       .  S
C1332      O1336   1.372       .  S
O1334      H1338   0.992       .  S
O1336      H1337   0.992       .  S
C1339      C1340   1.404       .  A
C1339      C1344   1.413       .  A
C1340      C1341   1.398       .  A
C1340      H1345   1.083       .  S
C1341      C1342   1.406       .  A
C1341      O1346   1.372       .  S
C1342      C1343   1.400       .  A
C1343      C1344   1.395       .  A
C1343      H1347   1.084       .  S
C1344      O1348   1.372       .  S
O1346      H1350   0.992       .  S
O1348      H1349   0.992       .  S
C1351      C1352   1.402       .  A
C1351      C1356   1.405       .  A
C1352      C1353   1.405       .  A
C1352      H1357   1.083       .  S
C1353      C1354   1.413       .  A
C1353      O1358   1.371       .  S
C1354      C1355   1.406       .  A
C1355      C1356   1.395       .  A
C1355      H1359   1.083       .  S
C1356      O1360   1.372       .  S
O1358      H1362   0.992       .  S
O1360      H1361   0.992       .  S
C1363      C1364   1.399       .  A
C1363      C1368   1.402       .  A
C1364      C1365   1.398       .  A
C1364      H1369   1.083       .  S
C1365      C1366   1.411       .  A
C1365      O1370   1.371       .  S
C1366      C1367   1.406       .  A
C1367      C1368   1.393       .  A
C1367      H1371   1.083       .  S
C1368      O1372   1.372       .  S
O1370      H1374   0.992       .  S
O1372      H1373   0.992       .  S
C1375      C1376   1.402       .  A
C1375      C1380   1.413       .  A
C1376      C1377   1.394       .  A
C1376      H1381   1.084       .  S
C1377      C1378   1.406       .  A
C1377      O1382   1.372       .  S
C1378      C1379   1.399       .  A
C1379      C1380   1.396       .  A
C1379      H1383   1.084       .  S
C1380      O1384   1.372       .  S
O1382      H1386   0.992       .  S
O1384      H1385   0.992       .  S
C1387      C1388   1.403       .  A
C1387      C1392   1.403       .  A
C1388      C1389   1.407       .  A
C1388      H1393   1.083       .  S
C1389      C1390   1.414       .  A
C1389      O1394   1.371       .  S
C1390      C1391   1.405       .  A
C1391      C1392   1.391       .  A
C1391      H1395   1.083       .  S
C1392      O1396   1.372       .  S
O1394      H1398   0.992       .  S
O1396      H1397   0.992       .  S
C1399      C1400   1.407       .  A
C1399      C1404   1.410       .  A
C1400      C1401   1.399       .  A
C1400      H1405   1.083       .  S
C1401      C1402   1.404       .  A
C1401      O1406   1.371       .  S
C1402      C1403   1.402       .  A
C1403      C1404   1.400       .  A
C1403      H1407   1.084       .  S
C1404      O1408   1.371       .  S
O1406      H1410   0.992       .  S
O1408      H1409   0.992       .  S
C1411      C1412   1.407       .  A
C1411      C1416   1.411       .  A
C1412      C1413   1.399       .  A
C1412      H1417   1.083       .  S
C1413      C1414   1.403       .  A
C1413      O1418   1.371       .  S
C1414      C1415   1.397       .  A
C1415      C1416   1.388       .  A
C1415      H1419   1.084       .  S
C1416      O1420   1.372       .  S
O1418      H1422   0.992       .  S
O1420      H1421   0.992       .  S
C1423      C1424   1.405       .  A
C1423      C1428   1.410       .  A
C1424      C1425   1.392       .  A
C1424      H1429   1.083       .  S
C1425      C1426   1.402       .  A
C1425      O1430   1.372       .  S
C1426      C1427   1.401       .  A
C1427      C1428   1.396       .  A
C1427      H1431   1.084       .  S
C1428      O1432   1.372       .  S
O1430      H1434   0.992       .  S
O1432      H1433   0.992       .  S
C1435      C1436   1.406       .  A
C1435      C1440   1.414       .  A
C1436      C1437   1.401       .  A
C1436      H1441   1.083       .  S
C1437      C1438   1.408       .  A
C1437      O1442   1.371       .  S
C1438      C1439   1.398       .  A
C1439      C1440   1.397       .  A
C1439      H1443   1.084       .  S
C1440      O1444   1.372       .  S
O1442      H1446   0.992       .  S
O1444      H1445   0.992       .  S
C1447      C1448   1.405       .  A
C1447      C1452   1.414       .  A
C1448      C1449   1.398       .  A
C1448      H1453   1.083       .  S
C1449      C1450   1.404       .  A
C1449      O1454   1.372       .  S
C1450      C1451   1.396       .  A
C1451      C1452   1.394       .  A
C1451      H1455   1.084       .  S
C1452      O1456   1.372       .  S
O1454      H1458   0.992       .  S
O1456      H1457   0.992       .  S
C1459      C1460   1.406       .  A
C1459      C1464   1.412       .  A
C1460      C1461   1.398       .  A
C1460      H1465   1.083       .  S
C1461      C1462   1.405       .  A
C1461      O1466   1.372       .  S
C1462      C1463   1.400       .  A
C1463      C1464   1.398       .  A
C1463      H1467   1.084       .  S
C1464      O1468   1.371       .  S
O1466      H1470   0.992       .  S
O1468      H1469   0.992       .  S
C1471      C1472   1.398       .  A
C1471      C1476   1.407       .  A
C1472      C1473   1.396       .  A
C1472      H1477   1.084       .  S
C1473      C1474   1.410       .  A
C1473      O1478   1.372       .  S
C1474      C1475   1.403       .  A
C1475      C1476   1.398       .  A
C1475      H1479   1.084       .  S
C1476      O1480   1.372       .  S
O1478      H1482   0.992       .  S
O1480      H1481   0.992       .  S
C1483      C1484   1.403       .  A
C1483      C1488   1.405       .  A
C1484      C1485   1.404       .  A
C1484      H1489   1.083       .  S
C1485      C1486   1.411       .  A
C1485      O1490   1.371       .  S
C1486      C1487   1.404       .  A
C1487      C1488   1.392       .  A
C1487      H1491   1.084       .  S
C1488      O1492   1.373       .  S
O1490      H1494   0.992       .  S
O1492      H1493   0.992       .  S
C1495      C1496   1.398       .  A
C1495      C1500   1.407       .  A
C1496      C1497   1.395       .  A
C1496      H1501   1.084       .  S
C1497      C1498   1.413       .  A
C1497      O1502   1.372       .  S
C1498      C1499   1.405       .  A
C1499      C1500   1.399       .  A
C1499      H1503   1.083       .  S
C1500      O1504   1.372       .  S
O1502      H1506   0.992       .  S
O1504      H1505   0.991       .  S
C1507      C1508   1.401       .  A
C1507      C1512   1.403       .  A
C1508      C1509   1.401       .  A
C1508      H1513   1.083       .  S
C1509      C1510   1.413       .  A
C1509      O1514   1.371       .  S
C1510      C1511   1.405       .  A
C1511      C1512   1.394       .  A
C1511      H1515   1.083       .  S
C1512      O1516   1.372       .  S
O1514      H1518   0.992       .  S
O1516      H1517   0.992       .  S
C1519      C1520   1.399       .  A
C1519      C1524   1.408       .  A
C1520      C1521   1.397   1_655  A
C1520      H1525   1.084       .  S
C1521      C1522   1.412   1_455  A
C1521      O1526   1.372       .  S
C1522      C1523   1.405       .  A
C1523      C1524   1.402       .  A
C1523      H1527   1.083       .  S
C1524      O1528   1.373       .  S
O1526      H1530   0.992       .  S
O1528      H1529   0.992       .  S
C1531      C1532   1.400       .  A
C1531      C1536   1.404       .  A
C1532      C1533   1.393       .  A
C1532      H1537   1.084       .  S
C1533      C1534   1.411       .  A
C1533      O1538   1.372       .  S
C1534      C1535   1.408       .  A
C1535      C1536   1.402       .  A
C1535      H1539   1.083   1_655  S
C1536      O1540   1.371       .  S
O1538      H1542   0.992       .  S
O1540      H1541   0.991       .  S
C1543      C1544   1.400       .  A
C1543      C1548   1.404       .  A
C1544      C1545   1.392       .  A
C1544      H1549   1.084       .  S
C1545      C1546   1.411       .  A
C1545      O1550   1.372       .  S
C1546      C1547   1.405       .  A
C1547      C1548   1.395       .  A
C1547      H1551   1.083       .  S
C1548      O1552   1.371       .  S
O1550      H1554   0.992       .  S
O1552      H1553   0.992       .  S
C1555      C1556   1.408       .  A
C1555      C1560   1.412       .  A
C1556      C1557   1.404       .  A
C1556      H1561   1.083       .  S
C1557      C1558   1.406       .  A
C1557      O1562   1.371       .  S
C1558      C1559   1.399       .  A
C1559      C1560   1.394       .  A
C1559      H1563   1.084       .  S
C1560      O1564   1.372       .  S
O1562      H1566   0.992       .  S
O1564      H1565   0.992       .  S
C1567      C1568   1.404   1_545  A
C1567      C1572   1.412       .  A
C1568      C1569   1.399       .  A
C1568      H1573   1.083       .  S
C1569      C1570   1.405       .  A
C1569      O1574   1.371       .  S
C1570      C1571   1.399   1_565  A
C1571      C1572   1.397       .  A
C1571      H1575   1.084       .  S
C1572      O1576   1.372       .  S
O1574      H1578   0.992       .  S
O1576      H1577   0.992       .  S
C1579      C1580   1.401       .  A
C1579      C1584   1.403       .  A
C1580      C1581   1.398       .  A
C1580      H1585   1.084       .  S
C1581      C1582   1.411       .  A
C1581      O1586   1.372       .  S
C1582      C1583   1.407       .  A
C1583      C1584   1.395       .  A
C1583      H1587   1.083       .  S
C1584      O1588   1.371       .  S
O1586      H1590   0.992       .  S
O1588      H1589   0.992       .  S
C1591      C1592   1.406       .  A
C1591      C1596   1.410       .  A
C1592      C1593   1.394       .  A
C1592      H1597   1.083       .  S
C1593      C1594   1.402       .  A
C1593      O1598   1.372       .  S
C1594      C1595   1.402       .  A
C1595      C1596   1.399       .  A
C1595      H1599   1.084       .  S
C1596      O1600   1.371       .  S
O1598      H1602   0.992       .  S
O1600      H1601   0.992       .  S
C1603      C1604   1.406       .  A
C1603      C1608   1.411       .  A
C1604      C1605   1.395       .  A
C1604      H1609   1.083       .  S
C1605      C1606   1.405   1_545  A
C1605      O1610   1.372       .  S
C1606      C1607   1.401       .  A
C1607      C1608   1.396   1_565  A
C1607      H1611   1.084       .  S
C1608      O1612   1.371   1_545  S
O1610      H1614   0.992       .  S
O1612      H1613   0.992       .  S
C1615      C1616   1.402       .  A
C1615      C1620   1.405       .  A
C1616      C1617   1.399       .  A
C1616      H1621   1.084       .  S
C1617      C1618   1.411       .  A
C1617      O1622   1.371       .  S
C1618      C1619   1.408       .  A
C1619      C1620   1.397       .  A
C1619      H1623   1.083       .  S
C1620      O1624   1.372       .  S
O1622      H1626   0.992       .  S
O1624      H1625   0.992       .  S
C1627      C1628   1.407       .  A
C1627      C1632   1.409       .  A
C1628      C1629   1.399       .  A
C1628      H1633   1.083       .  S
C1629      C1630   1.404       .  A
C1629      O1634   1.372       .  S
C1630      C1631   1.401       .  A
C1631      C1632   1.396       .  A
C1631      H1635   1.084       .  S
C1632      O1636   1.371       .  S
O1634      H1638   0.992       .  S
O1636      H1637   0.992       .  S
C1639      C1640   1.398       .  A
C1639      C1644   1.402       .  A
C1640      C1641   1.394       .  A
C1640      H1645   1.084       .  S
C1641      C1642   1.413       .  A
C1641      O1646   1.372       .  S
C1642      C1643   1.407       .  A
C1643      C1644   1.400       .  A
C1643      H1647   1.083       .  S
C1644      O1648   1.371       .  S
O1646      H1650   0.992       .  S
O1648      H1649   0.992       .  S
C1651      C1652   1.403       .  A
C1651      C1656   1.408       .  A
C1652      C1653   1.399       .  A
C1652      H1657   1.084       .  S
C1653      C1654   1.411       .  A
C1653      O1658   1.371       .  S
C1654      C1655   1.405       .  A
C1655      C1656   1.399       .  A
C1655      H1659   1.084       .  S
C1656      O1660   1.372       .  S
O1658      H1662   0.992       .  S
O1660      H1661   0.992       .  S
C1663      C1664   1.401       .  A
C1663      C1668   1.404       .  A
C1664      C1665   1.395       .  A
C1664      H1669   1.084       .  S
C1665      C1666   1.408       .  A
C1665      O1670   1.372       .  S
C1666      C1667   1.404       .  A
C1667      C1668   1.397       .  A
C1667      H1671   1.084       .  S
C1668      O1672   1.371   1_545  S
O1670      H1674   0.992       .  S
O1672      H1673   0.992       .  S
C1675      C1676   1.401       .  A
C1675      C1680   1.402       .  A
C1676      C1677   1.395       .  A
C1676      H1681   1.084       .  S
C1677      C1678   1.407       .  A
C1677      O1682   1.372       .  S
C1678      C1679   1.404       .  A
C1679      C1680   1.395       .  A
C1679      H1683   1.084       .  S
C1680      O1684   1.372   1_545  S
O1682      H1686   0.992       .  S
O1684      H1685   0.992       .  S
C1687      C1688   1.401       .  A
C1687      C1692   1.406       .  A
C1688      C1689   1.396       .  A
C1688      H1693   1.084       .  S
C1689      C1690   1.412       .  A
C1689      O1694   1.372       .  S
C1690      C1691   1.407       .  A
C1691      C1692   1.403       .  A
C1691      H1695   1.083       .  S
C1692      O1696   1.371   1_545  S
O1694      H1698   0.992       .  S
O1696      H1697   0.991       .  S
C1699      C1700   1.405       .  A
C1699      C1704   1.412       .  A
C1700      C1701   1.396       .  A
C1700      H1705   1.084       .  S
C1701      C1702   1.406       .  A
C1701      O1706   1.372       .  S
C1702      C1703   1.399       .  A
C1703      C1704   1.399       .  A
C1703      H1707   1.083       .  S
C1704      O1708   1.371       .  S
O1706      H1710   0.992       .  S
O1708      H1709   0.992       .  S
