geometry optimzed in LAMMPS
_audit_creation_date              2020-11-30 
_audit_creation_method            'lammps2cif' 
_symmetry_space_group_name_H-M    'P1' 
_symmetry_Int_Tables_number       1 
_symmetry_cell_setting            triclinic 
loop_ 
_symmetry_equiv_pos_as_xyz 
  x,y,z 
_cell_length_a                    50.88169195 
_cell_length_b                    50.60217492033453 
_cell_length_c                    33.25673757802237 
_cell_angle_alpha                 90.0381743969797 
_cell_angle_beta                  89.79109384490765 
_cell_angle_gamma                 90.3035831152347 
loop_ 
_atom_site_label 
_atom_site_type_symbol 
_atom_site_fract_x 
_atom_site_fract_y 
_atom_site_fract_z 
_atom_site_charge 
O1          O  0.25849851  0.20112006  0.39023882    -0.80100
O2          O  0.25384051  0.20588906  0.62224695    -0.81700
O3          O  0.30666743  0.18502471  0.51116738    -0.78700
O4          O  0.22235632  0.17026236  0.51758432    -0.77100
O5          O  0.18676790  0.19591372  0.50893984    -0.78900
O6          O  0.33284728  0.22184372  0.51107193    -0.79800
O7          O  0.25951897  0.17688872  0.57077492    -0.81200
O8          O  0.26283060  0.17367162  0.44459795    -0.81400
Eu9        Eu  0.26058068  0.19893608  0.50684032     2.39200
O10         O  0.22978590  0.22159249  0.54620542    -0.89000
O11         O  0.28341809  0.22808322  0.46460793    -0.92600
C12         C  0.26091080  0.17777022  0.40651408     1.02100
C13         C  0.25723190  0.18188779  0.60828869     1.02000
C14         C  0.32923340  0.19669799  0.51229488     1.01900
C15         C  0.19736501  0.17364391  0.51745564     0.99800
H16         H  0.29314064  0.22077405  0.56691048     0.29500
O17         O  0.28086061  0.22971736  0.54987494    -1.01300
H18         H  0.22193530  0.20523365  0.44596077     0.29500
O19         O  0.23139197  0.21850658  0.46103560    -1.03900
O20         O  0.24358892  0.29878833  0.61741148    -0.81100
O21         O  0.24781857  0.29304420  0.38581160    -0.80600
O22         O  0.32516991  0.26470813  0.57154688    -0.79100
O23         O  0.17588043  0.24183875  0.56256811    -0.82400
O24         O  0.17953817  0.23835906  0.43620769    -0.80300
O25         O  0.32699590  0.25885251  0.44486966    -0.78900
O26         O  0.28145192  0.33175392  0.49744909    -0.80500
O27         O  0.19794327  0.31663854  0.50148916    -0.82400
O28         O  0.31765537  0.30568109  0.50314833    -0.79100
O29         O  0.17223695  0.27981645  0.49601275    -0.81800
O30         O  0.29495021  0.25993768  0.62230385    -0.77500
O31         O  0.30156378  0.25184891  0.39035381    -0.77600
O32         O  0.20960476  0.24304397  0.38528717    -0.77200
O33         O  0.20210576  0.25066687  0.61623408    -0.80700
O34         O  0.24303839  0.32649441  0.56356030    -0.80100
O35         O  0.24032091  0.32319498  0.43604963    -0.78400
Eu36       Eu  0.24970046  0.25220600  0.59074678     2.39800
Eu37       Eu  0.25458513  0.24797479  0.41752211     2.39600
Eu38       Eu  0.30312050  0.25944330  0.50735107     2.38400
Eu39       Eu  0.20121376  0.24170845  0.50084085     2.39900
Eu40       Eu  0.24384992  0.30192531  0.50084386     2.39800
O41         O  0.22379295  0.27086393  0.45833929    -0.92900
O42         O  0.27236872  0.28183681  0.54698012    -0.91800
C43         C  0.24226679  0.32233865  0.60160645     1.02300
C44         C  0.24272763  0.31684095  0.39883302     1.01000
C45         C  0.31891788  0.26388921  0.60903106     1.00400
C46         C  0.17897554  0.24689611  0.60001709     1.02400
C47         C  0.18565510  0.23987101  0.39873635     1.01300
C48         C  0.32447980  0.25573686  0.40706158     1.00200
C49         C  0.30641342  0.32828563  0.49903729     1.00300
C50         C  0.17547177  0.30491559  0.49901254     1.02900
H51         H  0.28465529  0.29196926  0.44461708     0.30200
O52         O  0.27485668  0.27950574  0.46095917    -1.05000
H53         H  0.20828721  0.28282930  0.55780881     0.32300
O54         O  0.22137896  0.27276919  0.54342078    -1.07600
N55         N  0.50963371  0.03932453  0.54410836    -0.36600
N56         N  0.46312233  0.50853124  0.52881032    -0.57200
N57         N  0.49421069  0.46203454  0.51807792    -0.36600
N58         N  0.04047018  0.49185241  0.53425657    -0.57200
C59         C  0.49214119  0.05829072  0.53455092     0.27000
C60         C  0.03382970  0.04951515  0.53767638     0.27000
C61         C  0.47129892  0.45453630  0.50137113     0.27000
C62         C  0.01276731  0.44524002  0.50472589     0.27000
C63         C  0.45240920  0.03097172  0.54299025     0.35600
C64         C  0.44396657  0.49012965  0.52942607     0.35600
C65         C  0.05909925  0.00846499  0.54819346     0.35600
C66         C  0.05045935  0.46730388  0.53689402     0.35600
C67         C  0.50534991  0.08098546  0.52251717    -0.21900
C68         C  0.03174600  0.07555474  0.52500409    -0.21900
C69         C  0.47522382  0.43266357  0.47695975    -0.21900
C70         C  0.00160548  0.42684198  0.47892119    -0.21900
C71         C  0.42626014  0.02677911  0.55320431    -0.23000
C72         C  0.42088145  0.50068499  0.54453565    -0.23000
C73         C  0.08110314  0.99447057  0.55995653    -0.23000
C74         C  0.07546021  0.46825232  0.55333809    -0.23000
C75         C  0.46464535  0.05575778  0.53856947    -0.18300
C76         C  0.05761893  0.03607704  0.54456159    -0.18300
C77         C  0.03884901  0.44498728  0.51858603    -0.18300
C78         C  0.44673016  0.46498897  0.51217349    -0.18300
H79         H  0.49689113  0.09960747  0.51338255     0.14600
H80         H  0.04754243  0.08923035  0.51808398     0.14600
H81         H  0.46048610  0.42162145  0.46051342     0.14600
H82         H  0.01128703  0.41046759  0.46418488     0.14600
H83         H  0.41225672  0.04133404  0.56354357     0.12900
H84         H  0.40196011  0.49097286  0.54733884     0.12900
H85         H  0.09957150  0.00237755  0.57077803     0.12900
H86         H  0.08877905  0.45193938  0.55799002     0.12900
H87         H  0.50540453  0.02129987  0.55784923     0.26100
H88         H  0.49624878  0.47520179  0.54194411     0.26100
O89         O  0.99736516  0.45164260  0.88985025    -0.80100
O90         O  0.00064413  0.45466601  0.12302474    -0.81700
O91         O  0.04013264  0.42514164  0.00017923    -0.78700
O92         O  0.45708710  0.42251776  0.01040307    -0.77100
O93         O  0.42499785  0.45314242  0.00532940    -0.78900
O94         O  0.07119010  0.45679498  0.99677724    -0.79800
O95         O  0.00058498  0.42431893  0.07176140    -0.81200
O96         O  0.99880136  0.42280654  0.94310814    -0.81400
Eu97       Eu  0.99822191  0.44680118  0.00691529     2.39200
O98         O  0.47259681  0.47277924  0.05020514    -0.89000
O99         O  0.02266072  0.47316919  0.96230496    -0.92600
C100        C  0.99852105  0.42799399  0.90520927     1.02100
C101        C  0.00136123  0.43044821  0.10935121     1.02000
C102        C  0.06404144  0.43245741  0.99585903     1.01900
C103        C  0.43289998  0.42902374  0.00712082     0.99800
H104        H  0.03690068  0.46261204  0.06256752     0.29500
O105        O  0.02524206  0.47360574  0.04729876    -1.01300
H106        H  0.45999668  0.45929233  0.94848344     0.29500
O107        O  0.47110609  0.47110351  0.96362282    -1.03900
O108        O  0.00417647  0.04764780  0.11772757    -0.81100
O109        O  0.99335918  0.04363513  0.88636200    -0.80600
O110        O  0.07513491  0.49955366  0.06532025    -0.79100
O111        O  0.42439389  0.49845733  0.07198299    -0.82400
O112        O  0.42015634  0.99618522  0.94487061    -0.80300
O113        O  0.07128450  0.99983846  0.93669866    -0.78900
O114        O  0.03861447  0.07343986  0.00305178    -0.80500
O115        O  0.45377651  0.07190464  0.00028115    -0.82400
O116        O  0.07111296  0.04298842  0.99974930    -0.79100
O117        O  0.42293236  0.03958981  0.00311606    -0.81800
O118        O  0.04656173  0.50035410  0.11884506    -0.77500
O119        O  0.04099020  0.99950159  0.88577723    -0.77600
O120        O  0.44850516  0.99663215  0.89116586    -0.77200
O121        O  0.45399718  0.50413461  0.12286042    -0.80700
O122        O  0.99724983  0.07502467  0.06477607    -0.80100
O123        O  0.99527450  0.07339823  0.93800204    -0.78400
Eu124      Eu  0.99967873  0.50049753  0.09123025     2.39800
Eu125      Eu  0.99562436  0.99793779  0.91805520     2.39600
Eu126      Eu  0.04987002  0.99972248  0.00237291     2.38400
Eu127      Eu  0.44556948  0.99711253  0.00674833     2.39900
Eu128      Eu  0.99652212  0.05053417  0.00243840     2.39800
O129        O  0.46982647  0.02369495  0.96225055    -0.92900
O130        O  0.02422126  0.02625317  0.04473274    -0.91800
C131        C  0.00222462  0.07121538  0.10205542     1.02300
C132        C  0.99361487  0.06774769  0.90035019     1.01000
C133        C  0.07025995  0.49963877  0.10344696     1.00400
C134        C  0.42998065  0.50275709  0.10908565     1.02400
C135        C  0.42485614  0.99604180  0.90682461     1.01300
C136        C  0.06508032  0.00022604  0.89917944     1.00200
C137        C  0.06291232  0.06697393  0.00061813     1.00300
C138        C  0.42973498  0.06403413  0.00064304     1.02900
H139        H  0.03328768  0.03638780  0.94313246     0.30200
O140        O  0.02266549  0.02485443  0.95975338    -1.05000
H141        H  0.46077016  0.03654477  0.06282132     0.32300
O142        O  0.47181903  0.02480413  0.04727439    -1.07600
N143        N  0.24719077  0.20765142  0.92297298    -0.36600
N144        N  0.28732138  0.24823136  0.92600290    -0.57200
N145        N  0.24761379  0.28960779  0.92252383    -0.36600
N146        N  0.20748212  0.24912614  0.92121973    -0.57200
C147        C  0.26820572  0.19268924  0.93256405     0.27000
C148        C  0.22549830  0.19348998  0.93274384     0.27000
C149        C  0.26867185  0.30374317  0.93488040     0.27000
C150        C  0.22612929  0.30428351  0.93070701     0.27000
C151        C  0.30314967  0.22696957  0.92387441     0.35600
C152        C  0.30320585  0.26961885  0.92450671     0.35600
C153        C  0.19164481  0.22778368  0.91886088     0.35600
C154        C  0.19192980  0.27034410  0.91629552     0.35600
C155        C  0.25971953  0.16814383  0.94609236    -0.21900
C156        C  0.23280307  0.16876484  0.94667466    -0.21900
C157        C  0.26056961  0.32805658  0.94957193    -0.21900
C158        C  0.23371429  0.32844011  0.94679130    -0.21900
C159        C  0.32919065  0.23493650  0.92050300    -0.23000
C160        C  0.32920554  0.26197640  0.92071894    -0.23000
C161        C  0.16596774  0.23539613  0.91158372    -0.23000
C162        C  0.16614987  0.26243406  0.90988133    -0.23000
C163        C  0.29485102  0.20074598  0.93085286    -0.18300
C164        C  0.19920882  0.20203775  0.92945177    -0.18300
C165        C  0.19979560  0.29646226  0.92453320    -0.18300
C166        C  0.29509888  0.29559750  0.93283092    -0.18300
H167        H  0.27163869  0.15169313  0.95575216     0.14600
H168        H  0.22009066  0.15283905  0.95666920     0.14600
H169        H  0.27271220  0.34384288  0.96144184     0.14600
H170        H  0.22120255  0.34454644  0.95622411     0.14600
H171        H  0.34650548  0.22262598  0.91978101     0.12900
H172        H  0.34647941  0.27455539  0.92024697     0.12900
H173        H  0.14872989  0.22283039  0.90969475     0.12900
H174        H  0.14904448  0.27486596  0.90660128     0.12900
H175        H  0.24760199  0.22587526  0.90872831     0.26100
H176        H  0.24804081  0.27185608  0.90685851     0.26100
C177        C  0.00484896  0.24965067  0.25741956    -0.02500
C178        C  0.24960589  0.99805709  0.25556408    -0.02500
C179        C  0.49920752  0.24943855  0.75320337    -0.02500
C180        C  0.24598556  0.50082385  0.75552345    -0.02500
C181        C  0.09432387  0.49794271  0.13005380     0.01300
C182        C  0.11166081  0.47622552  0.12593841     0.04100
C183        C  0.13640278  0.47586348  0.14547329    -0.11900
C184        C  0.14500402  0.49767652  0.16846349     0.23400
C185        C  0.12758148  0.01920848  0.17333838    -0.12500
C186        C  0.10239203  0.01920322  0.15475475     0.04900
C187        C  0.17175460  0.49735436  0.18879084     0.27300
C188        C  0.17373107  0.99087167  0.22953660    -0.13200
C189        C  0.19787304  0.99361377  0.25028751     0.05400
C190        C  0.22273207  0.49823333  0.22960962    -0.09100
C191        C  0.22037162  0.50141147  0.18629546     0.06200
C192        C  0.19512369  0.50315180  0.16759930    -0.13500
Br193      Br  0.13859900  0.04923488  0.20472720    -0.05600
Br194      Br  0.10157819  0.44656331  0.09321448     0.00000
Br195      Br  0.19395280  0.99574460  0.30793405     0.00500
Br196      Br  0.19201224  0.51385969  0.11204658    -0.03900
Br197      Br  0.07944463  0.04900860  0.16176162     0.00600
Br198      Br  0.15861672  0.44517714  0.14113986    -0.03200
Br199      Br  0.14251961  0.97846660  0.25732311    -0.04100
Br200      Br  0.24944277  0.50046316  0.14850040    -0.00100
C201        C  0.27698635  0.49790179  0.23004226     0.01300
C202        C  0.29541573  0.47579053  0.22768806     0.04100
C203        C  0.31847578  0.47725380  0.20389881    -0.11900
C204        C  0.32931440  0.50174876  0.19404588     0.23400
C205        C  0.31418251  0.02436402  0.20062126    -0.12500
C206        C  0.28759073  0.02224624  0.21319755     0.04900
C207        C  0.35595940  0.50365362  0.17466287     0.27300
C208        C  0.37945894  0.49910120  0.19634352    -0.13200
C209        C  0.40429771  0.49958287  0.17644098     0.05400
C210        C  0.40589437  0.50664106  0.13528274    -0.09100
C211        C  0.38237852  0.01537503  0.11647772     0.06200
C212        C  0.35772792  0.01116759  0.13423719    -0.13500
Br213      Br  0.33045473  0.05862370  0.19221210    -0.05600
Br214      Br  0.29876335  0.44641411  0.26445232     0.00000
Br215      Br  0.43560924  0.49169312  0.20631396     0.00500
Br216      Br  0.32626981  0.01514727  0.10229118    -0.03900
Br217      Br  0.26739962  0.05375923  0.20331959     0.00600
Br218      Br  0.33689458  0.44552576  0.18731824    -0.03200
Br219      Br  0.37744529  0.49259560  0.25334715    -0.04100
Br220      Br  0.38325544  0.03757052  0.06963954    -0.00100
C221        C  0.00404398  0.40708745  0.13717067     0.01300
C222        C  0.52426891  0.38855584  0.12977766     0.04100
C223        C  0.52416734  0.36346256  0.14840642    -0.11900
C224        C  0.00442875  0.35654807  0.17648659     0.23400
C225        C  0.98488558  0.37555883  0.18569602    -0.12500
C226        C  0.98451588  0.40045983  0.16580421     0.04900
C227        C  0.00472300  0.32931491  0.19561844     0.27300
C228        C  0.48824102  0.30889682  0.18175805    -0.13200
C229        C  0.48965291  0.28282538  0.19816917     0.05400
C230        C  0.00820066  0.27598037  0.22950573    -0.09100
C231        C  0.02790963  0.29621683  0.23619593     0.06200
C232        C  0.02427634  0.32272338  0.22342677    -0.13500
Br233      Br  0.95816119  0.36748502  0.22492153    -0.05600
Br234      Br  0.55277055  0.39761048  0.09415974     0.00000
Br235      Br  0.46760247  0.25741837  0.17150460     0.00500
Br236      Br  0.04614435  0.35071317  0.24499058    -0.03900
Br237      Br  0.95631141  0.42479280  0.17596838     0.00600
Br238      Br  0.55074752  0.33796230  0.13391377    -0.03200
Br239      Br  0.46329373  0.31728128  0.13983686    -0.04100
Br240      Br  0.06407740  0.28907789  0.24747530    -0.00100
C241        C  0.00549848  0.09655340  0.12647209     0.01300
C242        C  0.50694099  0.12134577  0.10585607     0.04100
C243        C  0.50292878  0.14528675  0.12628003    -0.11900
C244        C  0.00420670  0.14624134  0.16839184     0.23400
C245        C  0.00713669  0.12218620  0.18968262    -0.12500
C246        C  0.00641588  0.09743296  0.16919575     0.04900
C247        C  0.00332826  0.17275626  0.18924049     0.27300
C248        C  0.02342637  0.19151664  0.18294635    -0.13200
C249        C  0.02176912  0.21735421  0.19954516     0.05400
C250        C  0.00141698  0.22432597  0.22789614    -0.09100
C251        C  0.47903645  0.20626041  0.22774692     0.06200
C252        C  0.48082059  0.18061217  0.21041990    -0.13500
Br253      Br  0.01261017  0.12324935  0.24694243    -0.05600
Br254      Br  0.51986494  0.12462748  0.05131767     0.00000
Br255      Br  0.04866141  0.24171841  0.18221159     0.00500
Br256      Br  0.45136970  0.15609993  0.21297871    -0.03900
Br257      Br  0.00814834  0.06543993  0.20051181     0.00600
Br258      Br  0.49530727  0.17695379  0.09585895    -0.03200
Br259      Br  0.05515329  0.18038284  0.15543844    -0.04100
Br260      Br  0.44290454  0.21656284  0.23761393    -0.00100
C261        C  0.17899677  0.31569588  0.93424456     0.01300
C262        C  0.16758339  0.33098458  0.90368242     0.04100
C263        C  0.14807077  0.34937768  0.91353335    -0.11900
C264        C  0.14065550  0.35283008  0.95402605     0.23400
C265        C  0.15188629  0.33737516  0.98452156    -0.12500
C266        C  0.17083874  0.31854068  0.97455573     0.04900
C267        C  0.12124067  0.37298753  0.96489941     0.27300
C268        C  0.12926167  0.39934223  0.96908201    -0.13200
C269        C  0.11103045  0.41878596  0.98005550     0.05400
C270        C  0.08420723  0.41164874  0.98766905    -0.09100
C271        C  0.07667521  0.38434783  0.98429625     0.06200
C272        C  0.09521009  0.36543640  0.97241181    -0.13500
Br273      Br  0.14128469  0.34219004  0.03989865    -0.05600
Br274      Br  0.17878110  0.32666842  0.84864941     0.00000
Br275      Br  0.12452465  0.45472082  0.98323279     0.00500
Br276      Br  0.08520631  0.32866528  0.96572778    -0.03900
Br277      Br  0.18582349  0.29674257  0.01612831     0.00600
Br278      Br  0.13135638  0.36979688  0.87190423    -0.03200
Br279      Br  0.16575926  0.40851405  0.95950177    -0.04100
Br280      Br  0.04131886  0.37094781  0.99406406    -0.00100
C281        C  0.41301790  0.40754532  0.00268748     0.01300
C282        C  0.41962254  0.38319757  0.98361918     0.04100
C283        C  0.39974907  0.36494396  0.97396476    -0.11900
C284        C  0.37332140  0.37135774  0.98078140     0.23400
C285        C  0.36661402  0.39492108  0.00048781    -0.12500
C286        C  0.38645368  0.41223944  0.01355536     0.04900
C287        C  0.35266274  0.35258791  0.96854030     0.27300
C288        C  0.34446765  0.35156270  0.92811981    -0.13200
C289        C  0.32575888  0.33269140  0.91624647     0.05400
C290        C  0.31545615  0.31491480  0.94475686    -0.09100
C291        C  0.32387550  0.31573399  0.98503969     0.06200
C292        C  0.34234426  0.33474640  0.99701101    -0.13500
Br293      Br  0.33006759  0.40380304  0.00814200    -0.05600
Br294      Br  0.45520378  0.37404816  0.96836270     0.00000
Br295      Br  0.31451485  0.33061883  0.86098644     0.00500
Br296      Br  0.35382023  0.33624477  0.05224580    -0.03900
Br297      Br  0.37673691  0.44152702  0.04788366     0.00600
Br298      Br  0.40840999  0.33097277  0.95068201    -0.03200
Br299      Br  0.35912192  0.37576288  0.88912425    -0.04100
Br300      Br  0.31028117  0.29057703  0.02359409    -0.00100
C301        C  0.31514579  0.18151066  0.94329593     0.01300
C302        C  0.33121742  0.16922654  0.91434156     0.04100
C303        C  0.35108077  0.15192329  0.92670419    -0.11900
C304        C  0.35362379  0.14549751  0.96776318     0.23400
C305        C  0.33714698  0.15730308  0.99662011    -0.12500
C306        C  0.31854682  0.17600971  0.98454975     0.04900
C307        C  0.37210503  0.12462268  0.97996110     0.27300
C308        C  0.36564187  0.09814820  0.97219540    -0.13200
C309        C  0.38442599  0.07830644  0.97786723     0.05400
C310        C  0.40876043  0.08443018  0.99679745    -0.09100
C311        C  0.41356159  0.11094570  0.00926574     0.06200
C312        C  0.39612187  0.13110829  0.99817076    -0.13500
Br313      Br  0.33923505  0.14686012  0.05232486    -0.05600
Br314      Br  0.32557914  0.17573613  0.85789027     0.00000
Br315      Br  0.37662322  0.04391968  0.95543827     0.00500
Br316      Br  0.40559045  0.16778658  0.00589291    -0.03900
Br317      Br  0.29744241  0.19386897  0.02450158     0.00600
Br318      Br  0.37466842  0.13669792  0.88751407    -0.03200
Br319      Br  0.33083355  0.08944575  0.95303128    -0.04100
Br320      Br  0.44361466  0.12053242  0.04173522    -0.00100
C321        C  0.17830798  0.18347689  0.94221849     0.01300
C322        C  0.16784630  0.18530326  0.98147250     0.04100
C323        C  0.14907286  0.16682179  0.99450905    -0.11900
C324        C  0.14128198  0.14630995  0.96858936     0.23400
C325        C  0.15147948  0.14469512  0.92920844    -0.12500
C326        C  0.16978902  0.16351962  0.91585710     0.04900
C327        C  0.12089702  0.12744115  0.98143688     0.27300
C328        C  0.12765702  0.10465644  0.00305490    -0.13200
C329        C  0.10828657  0.08567519  0.01216055     0.05400
C330        C  0.08249702  0.08858378  0.99666210    -0.09100
C331        C  0.07605819  0.11180380  0.97483604     0.06200
C332        C  0.09492050  0.13169628  0.96943132    -0.13500
Br333      Br  0.14005525  0.11688924  0.89348060    -0.05600
Br334      Br  0.17929598  0.21303277  0.01736695     0.00000
Br335      Br  0.11764930  0.05623627  0.04625351     0.00500
Br336      Br  0.08560836  0.16481149  0.94439545    -0.03900
Br337      Br  0.18294202  0.16244368  0.86140357     0.00600
Br338      Br  0.13345862  0.16979545  0.04731149    -0.03200
Br339      Br  0.16369573  0.09933586  0.01904335    -0.04100
Br340      Br  0.04293883  0.11601701  0.94721595    -0.00100
C341        C  0.27116592  0.99708516  0.78495717     0.01300
C342        C  0.27742585  0.01555224  0.81676512     0.04100
C343        C  0.30257223  0.01563178  0.83604537    -0.11900
C344        C  0.32304133  0.99907890  0.82265326     0.23400
C345        C  0.31692997  0.48020159  0.79319977    -0.12500
C346        C  0.29081151  0.47674488  0.77955998     0.04900
C347        C  0.34975012  0.99851129  0.84308388     0.27300
C348        C  0.36995028  0.01710100  0.83418822    -0.13200
C349        C  0.39492286  0.01567342  0.85323784     0.05400
C350        C  0.40051150  0.99525725  0.88084645    -0.09100
C351        C  0.38034539  0.97650716  0.88916762     0.06200
C352        C  0.35529273  0.97829047  0.87097784    -0.13500
Br353      Br  0.34455978  0.45791458  0.77226546    -0.05600
Br354      Br  0.25308396  0.04197340  0.83491433     0.00000
Br355      Br  0.42070210  0.04314733  0.84418835     0.00500
Br356      Br  0.32801277  0.45321099  0.88531945    -0.03900
Br357      Br  0.28284645  0.43980669  0.77140848     0.00600
Br358      Br  0.30978313  0.03934580  0.88005931    -0.03200
Br359      Br  0.36358134  0.04510690  0.79661203    -0.04100
Br360      Br  0.38677180  0.94785812  0.92573496    -0.00100
C361        C  0.08834325  0.00236672  0.87127347     0.01300
C362        C  0.10836375  0.02089543  0.88059242     0.04100
C363        C  0.13368380  0.01886922  0.86362936    -0.11900
C364        C  0.13917440  0.99951740  0.83436668     0.23400
C365        C  0.11858749  0.48229270  0.82224756    -0.12500
C366        C  0.09332701  0.48371536  0.84063441     0.04900
C367        C  0.16614579  0.99924186  0.81512927     0.27300
C368        C  0.17295297  0.01893074  0.78734456    -0.13200
C369        C  0.19952264  0.02332066  0.77618754     0.05400
C370        C  0.21946168  0.00345484  0.78272953    -0.09100
C371        C  0.21217166  0.48403758  0.81281769     0.06200
C372        C  0.18632172  0.48296492  0.82973559    -0.13500
Br373      Br  0.12484082  0.45643481  0.78099388    -0.05600
Br374      Br  0.10061656  0.05064089  0.91457423     0.00000
Br375      Br  0.20675187  0.06049580  0.76972740     0.00500
Br376      Br  0.17793214  0.45905093  0.87332431    -0.03900
Br377      Br  0.06554676  0.46036369  0.82347680     0.00600
Br378      Br  0.16133113  0.04240744  0.88146685    -0.03200
Br379      Br  0.14543656  0.04108103  0.76589810    -0.04100
Br380      Br  0.23618882  0.45835022  0.83353427    -0.00100
C381        C  0.99181764  0.09159311  0.87308382     0.01300
C382        C  0.97699760  0.11370002  0.88620404     0.04100
C383        C  0.98026012  0.13878409  0.86861243    -0.11900
C384        C  0.99540475  0.14176692  0.83353756     0.23400
C385        C  0.50803305  0.11925290  0.81722595    -0.12500
C386        C  0.50727319  0.09460515  0.83785848     0.04900
C387        C  0.99646045  0.16834191  0.81307827     0.27300
C388        C  0.47487898  0.17721561  0.79119693    -0.13200
C389        C  0.47567776  0.20168217  0.77030048     0.05400
C390        C  0.49720778  0.22084001  0.77581246    -0.09100
C391        C  0.01925839  0.21026616  0.79828725     0.06200
C392        C  0.01851766  0.18478344  0.81641336    -0.13500
Br393      Br  0.52624258  0.12232727  0.76652207    -0.05600
Br394      Br  0.94995151  0.10963727  0.92587389     0.00000
Br395      Br  0.44988323  0.20104306  0.72725248     0.00500
Br396      Br  0.04763654  0.17200811  0.84817340    -0.03900
Br397      Br  0.52846198  0.06573603  0.81880982     0.00600
Br398      Br  0.96408082  0.16942931  0.89300450    -0.03200
Br399      Br  0.44424925  0.15394317  0.78824034    -0.04100
Br400      Br  0.05177811  0.22918204  0.80704971    -0.00100
C401        C  0.99953431  0.40424162  0.87869272     0.01300
C402        C  0.47601531  0.39224400  0.86551416     0.04100
C403        C  0.47619046  0.36633499  0.84946717    -0.11900
C404        C  0.00004247  0.35234928  0.84518283     0.23400
C405        C  0.02371728  0.36477976  0.85704646    -0.12500
C406        C  0.02338178  0.39037854  0.87412032     0.04900
C407        C  0.00033420  0.32604189  0.82387763     0.27300
C408        C  0.50176063  0.30200800  0.84490964    -0.13200
C409        C  0.50046187  0.27714466  0.82453817     0.05400
C410        C  0.49953220  0.27578763  0.78079846    -0.09100
C411        C  0.99838507  0.30136054  0.76063894     0.06200
C412        C  0.99878902  0.32553872  0.78200748    -0.13500
Br413      Br  0.05672478  0.34683987  0.84979977    -0.05600
Br414      Br  0.44343807  0.41128971  0.87024170     0.00000
Br415      Br  0.49756786  0.24724517  0.86077509     0.00500
Br416      Br  0.99966324  0.35916168  0.75374827    -0.03900
Br417      Br  0.05575099  0.40660495  0.89133706     0.00600
Br418      Br  0.44362611  0.34971456  0.83362233    -0.03200
Br419      Br  0.50608089  0.30383839  0.90273378    -0.04100
Br420      Br  0.00012697  0.30582463  0.70280554    -0.00100
C421        C  0.34208163  0.26680715  0.63706896     0.01300
C422        C  0.36151884  0.28644708  0.62920072     0.04100
C423        C  0.38681560  0.28509043  0.64689284    -0.11900
C424        C  0.39348912  0.26391291  0.67244257     0.23400
C425        C  0.37340015  0.24553127  0.68296686    -0.12500
C426        C  0.34788987  0.24717629  0.66584520     0.04900
C427        C  0.42090328  0.26203705  0.69033391     0.27300
C428        C  0.44301404  0.25434226  0.66746011    -0.13200
C429        C  0.46875786  0.25303638  0.68484347     0.05400
C430        C  0.47226196  0.25416491  0.72820945    -0.09100
C431        C  0.44836758  0.26060430  0.75029706     0.06200
C432        C  0.42472269  0.26764766  0.73096790    -0.13500
Br433      Br  0.38076737  0.21752079  0.72044549    -0.05600
Br434      Br  0.35328735  0.31594019  0.59470959     0.00000
Br435      Br  0.49692619  0.25041477  0.64598977    -0.00500
Br436      Br  0.39664667  0.28466616  0.76066278    -0.03900
Br437      Br  0.32113920  0.22193676  0.68114370     0.00600
Br438      Br  0.41238807  0.31264810  0.63682153    -0.03200
Br439      Br  0.43734029  0.24408722  0.61214442    -0.04100
Br440      Br  0.44379497  0.25516837  0.80720986    -0.00100
C441        C  0.15338055  0.24854655  0.62397695     0.01300
C442        C  0.12891301  0.25312092  0.60359116     0.04100
C443        C  0.10461096  0.25131769  0.62396626    -0.11900
C444        C  0.10368013  0.24574141  0.66512715     0.23400
C445        C  0.12748975  0.24266229  0.68632277    -0.12500
C446        C  0.15215538  0.24455986  0.66625825     0.04900
C447        C  0.07762115  0.24622841  0.68656722     0.27300
C448        C  0.06952830  0.26932168  0.70546706    -0.13200
C449        C  0.04763823  0.26901232  0.73151450     0.05400
C450        C  0.02698444  0.24875117  0.72824244    -0.09100
C451        C  0.03539055  0.22565498  0.70545654     0.06200
C452        C  0.06085105  0.22418628  0.68743516    -0.13500
Br453      Br  0.12600680  0.23563071  0.74328166    -0.05600
Br454      Br  0.12673423  0.26430240  0.54818116     0.00000
Br455      Br  0.05572730  0.29140598  0.77762523     0.00500
Br456      Br  0.07330372  0.19198934  0.66247244    -0.03900
Br457      Br  0.18368939  0.24284319  0.69807895     0.00600
Br458      Br  0.07186661  0.25730863  0.59576409    -0.03200
Br459      Br  0.09026294  0.30130279  0.69797848    -0.04100
Br460      Br  0.01385007  0.19465201  0.69652859    -0.00100
C461        C  0.25039878  0.02724180  0.72840076     0.01300
C462        C  0.23306159  0.03490407  0.69622036     0.04100
C463        C  0.23236739  0.06148447  0.68179074    -0.11900
C464        C  0.24958736  0.08098250  0.69685666     0.23400
C465        C  0.26862778  0.07321518  0.72460668    -0.12500
C466        C  0.27099826  0.04639719  0.73600722     0.04900
C467        C  0.25219578  0.10750450  0.67629631     0.27300
C468        C  0.26628681  0.10893828  0.63998694    -0.13200
C469        C  0.26936362  0.13318737  0.61944378     0.05400
C470        C  0.25802244  0.15720618  0.63478774    -0.09100
C471        C  0.24531637  0.15576176  0.67291051     0.06200
C472        C  0.24235272  0.13112326  0.69322153    -0.13500
Br473      Br  0.29373621  0.09926175  0.74365957    -0.05600
Br474      Br  0.21192857  0.01007380  0.66677671     0.00000
Br475      Br  0.29004534  0.13161680  0.57028830     0.00500
Br476      Br  0.22456890  0.12955748  0.74441779    -0.03900
Br477      Br  0.30733076  0.03681203  0.74188121     0.00600
Br478      Br  0.20640288  0.07226506  0.64299464    -0.03200
Br479      Br  0.28177630  0.07689673  0.61843736    -0.04100
Br480      Br  0.23136729  0.18703198  0.69800600    -0.00100
C481        C  0.24278871  0.47528948  0.72650470     0.01300
C482        C  0.22109511  0.45684029  0.72964303     0.04100
C483        C  0.22349146  0.43027439  0.71720677    -0.11900
C484        C  0.24390951  0.42264287  0.69151877     0.23400
C485        C  0.26256586  0.44190005  0.68001224    -0.12500
C486        C  0.26215452  0.46785659  0.69686181     0.04900
C487        C  0.24251374  0.39630242  0.67034017     0.27300
C488        C  0.25215642  0.37284114  0.68781744    -0.13200
C489        C  0.25115512  0.34844824  0.66665266     0.05400
C490        C  0.24018960  0.34705159  0.62741819    -0.09100
C491        C  0.22914270  0.37075874  0.61113579     0.06200
C492        C  0.23050802  0.39489370  0.63240338    -0.13500
Br493      Br  0.29019353  0.43145121  0.64346208    -0.05600
Br494      Br  0.18482932  0.46767739  0.73025730     0.00000
Br495      Br  0.26620632  0.31762127  0.69172286     0.00500
Br496      Br  0.21578623  0.42672928  0.60943804    -0.03900
Br497      Br  0.28844587  0.49185617  0.67701460     0.00600
Br498      Br  0.19701061  0.40455362  0.73253634    -0.03200
Br499      Br  0.26699342  0.37413654  0.74096426    -0.04100
Br500      Br  0.21159354  0.37177042  0.55946829    -0.00100
C501        C  0.35247559  0.17989156  0.51635954     0.01300
C502        C  0.37015785  0.17667668  0.48407921     0.04100
C503        C  0.39165973  0.15957688  0.48816496    -0.11900
C504        C  0.39339159  0.14313710  0.52227892     0.23400
C505        C  0.37521005  0.14596207  0.55405102    -0.12500
C506        C  0.35627343  0.16588951  0.55232843     0.04900
C507        C  0.41335227  0.12205551  0.52412553     0.27300
C508        C  0.41159444  0.10026479  0.49782511    -0.13200
C509        C  0.43015812  0.08001417  0.50019672     0.05400
C510        C  0.44777512  0.07926482  0.53289130    -0.09100
C511        C  0.44887735  0.10058481  0.56015224     0.06200
C512        C  0.43308620  0.12283986  0.55379232    -0.13500
Br513      Br  0.37476641  0.12141780  0.59852811    -0.05600
Br514      Br  0.36393303  0.19402190  0.43351002     0.00000
Br515      Br  0.43167627  0.05374768  0.45799529     0.00500
Br516      Br  0.43839214  0.15429324  0.58572436    -0.03900
Br517      Br  0.33701615  0.17541277  0.60008824     0.00600
Br518      Br  0.41844022  0.15826219  0.44699776    -0.03200
Br519      Br  0.38283816  0.09705579  0.46027521    -0.04100
Br520      Br  0.47055160  0.09867168  0.60756991    -0.00100
C521        C  0.08232886  0.05143625  0.54352363     0.01300
C522        C  0.09381289  0.06021847  0.57958940     0.04100
C523        C  0.11585002  0.07696141  0.57820927    -0.11900
C524        C  0.12563502  0.08561485  0.54079059     0.23400
C525        C  0.11501633  0.07571248  0.50475739    -0.12500
C526        C  0.09342227  0.05844983  0.50611433     0.04900
C527        C  0.14447969  0.10777114  0.53902268     0.27300
C528        C  0.13488568  0.13365965  0.53975086    -0.13200
C529        C  0.15212253  0.15514525  0.53473326     0.05400
C530        C  0.17950626  0.15079152  0.52768672    -0.09100
C531        C  0.18912564  0.12433552  0.53086696     0.06200
C532        C  0.17145589  0.10305045  0.53560378    -0.13500
Br533      Br  0.12931454  0.08691354  0.45364493    -0.05600
Br534      Br  0.07833317  0.05056840  0.63057523     0.00000
Br535      Br  0.13685718  0.18995212  0.54085870     0.00500
Br536      Br  0.18374459  0.06694152  0.53679282    -0.03900
Br537      Br  0.07780178  0.04588833  0.45676723     0.00600
Br538      Br  0.13205782  0.08896268  0.62729264    -0.03200
Br539      Br  0.09754766  0.13943626  0.54726406    -0.04100
Br540      Br  0.22606368  0.11560516  0.53070489    -0.00100
C541        C  0.15180055  0.32142045  0.50186499     0.01300
C542        C  0.14660269  0.33503319  0.53794859     0.04100
C543        C  0.12673691  0.35411297  0.53930051    -0.11900
C544        C  0.11064940  0.35806393  0.50549663     0.23400
C545        C  0.11394010  0.34234798  0.47089016    -0.12500
C546        C  0.13445694  0.32386572  0.46915337     0.04900
C547        C  0.09081477  0.37926166  0.50600048     0.27300
C548        C  0.06728398  0.37609051  0.52800055    -0.13200
C549        C  0.05005373  0.39753337  0.53223752     0.05400
C550        C  0.05526330  0.42131411  0.51144063    -0.09100
C551        C  0.07732201  0.42328087  0.48585224     0.06200
C552        C  0.09593079  0.40299769  0.48526332    -0.13500
Br553      Br  0.09078197  0.34697593  0.42563495    -0.05600
Br554      Br  0.16462142  0.32529324  0.58667986     0.00000
Br555      Br  0.02023801  0.39468499  0.56810332     0.00500
Br556      Br  0.12921812  0.40849858  0.45844495    -0.03900
Br557      Br  0.13842199  0.30170191  0.42250895     0.00600
Br558      Br  0.12237840  0.37564481  0.58678173    -0.03200
Br559      Br  0.05911817  0.34259545  0.55299819    -0.04100
Br560      Br  0.08192481  0.45372263  0.45145950    -0.00100
C561        C  0.32350613  0.35170602  0.49514079     0.01300
C562        C  0.34425175  0.35150970  0.46690340     0.04100
C563        C  0.36316411  0.37171344  0.46718802    -0.11900
C564        C  0.36001741  0.39338431  0.49316188     0.23400
C565        C  0.33776424  0.39513115  0.51824057    -0.12500
C566        C  0.31989534  0.37392992  0.52022437     0.04900
C567        C  0.38162038  0.41254925  0.49793343     0.27300
C568        C  0.39853711  0.40992066  0.53110523    -0.13200
C569        C  0.41908989  0.42797033  0.53651460     0.05400
C570        C  0.42347295  0.44789098  0.50781505    -0.09100
C571        C  0.40687987  0.45041316  0.47428515     0.06200
C572        C  0.38565902  0.43285276  0.46954462    -0.13500
Br573      Br  0.33282149  0.42607940  0.55133970    -0.05600
Br574      Br  0.34607213  0.32447258  0.42623761     0.00000
Br575      Br  0.44144066  0.42545284  0.58319314     0.00500
Br576      Br  0.36261183  0.43609182  0.42389208    -0.03900
Br577      Br  0.29195817  0.37475975  0.55951711     0.00600
Br578      Br  0.39426403  0.36883115  0.43403265    -0.03200
Br579      Br  0.39427382  0.38087044  0.56823474    -0.04100
Br580      Br  0.41388133  0.47729622  0.43450091    -0.00100
C581        C  0.16237569  0.23853578  0.37104771     0.01300
C582        C  0.14230059  0.21971232  0.37906239     0.04100
C583        C  0.11672400  0.22286314  0.36337094    -0.11900
C584        C  0.11082310  0.24416979  0.33753942     0.23400
C585        C  0.13135078  0.26206138  0.32734600    -0.12500
C586        C  0.15694061  0.25918517  0.34376490     0.04900
C587        C  0.08362364  0.24590595  0.31917757     0.27300
C588        C  0.07649238  0.22805157  0.28892368    -0.13200
C589        C  0.04989246  0.22471927  0.27796720     0.05400
C590        C  0.03050545  0.24489487  0.28599067    -0.09100
C591        C  0.03743793  0.26138457  0.31996630     0.06200
C592        C  0.06352398  0.26147437  0.33622699    -0.13500
Br593      Br  0.12447116  0.29141748  0.29245097    -0.05600
Br594      Br  0.15004509  0.18889477  0.41117475     0.00000
Br595      Br  0.04136938  0.18754401  0.27365239     0.00500
Br596      Br  0.07237133  0.28362427  0.38139805    -0.03900
Br597      Br  0.18411557  0.28450357  0.33045611     0.00600
Br598      Br  0.08927373  0.19828919  0.37865708    -0.03200
Br599      Br  0.10308349  0.20562964  0.26525452    -0.04100
Br600      Br  0.01218313  0.28194387  0.34938552    -0.00100
C601        C  0.35047425  0.25645084  0.38358836     0.01300
C602        C  0.35184458  0.25220378  0.34126491     0.04100
C603        C  0.37653542  0.25057504  0.32119409    -0.11900
C604        C  0.40032197  0.25502659  0.34199429     0.23400
C605        C  0.39919373  0.26158143  0.38296238    -0.12500
C606        C  0.37510311  0.26100183  0.40420807     0.04900
C607        C  0.42680765  0.25368386  0.32138899     0.27300
C608        C  0.44476973  0.23352823  0.33084432    -0.13200
C609        C  0.47055123  0.23324153  0.31386587     0.05400
C610        C  0.47911679  0.25316321  0.28563282    -0.09100
C611        C  0.46205228  0.27594820  0.28409381     0.06200
C612        C  0.43569071  0.27481039  0.29773835    -0.13500
Br613      Br  0.43139077  0.27213625  0.40995699    -0.05600
Br614      Br  0.32045339  0.24910937  0.30914581     0.00000
Br615      Br  0.49238894  0.20453465  0.33039063     0.00500
Br616      Br  0.41203245  0.30386396  0.28705276    -0.03900
Br617      Br  0.37858207  0.26571691  0.46221070     0.00600
Br618      Br  0.37785813  0.24238418  0.26459095    -0.03200
Br619      Br  0.43278138  0.20487376  0.36481328    -0.04100
Br620      Br  0.47485238  0.31183225  0.28213321    -0.00100
C621        C  0.24661466  0.47033378  0.27958932     0.01300
C622        C  0.24953114  0.46621066  0.32264273     0.04100
C623        C  0.25096467  0.44013999  0.33881107    -0.11900
C624        C  0.24349202  0.41797902  0.31598889     0.23400
C625        C  0.23551538  0.42184874  0.27640139    -0.12500
C626        C  0.23960352  0.44647856  0.25726953     0.04900
C627        C  0.24239404  0.39071240  0.33410781     0.27300
C628        C  0.26266051  0.37210950  0.32734176    -0.13200
C629        C  0.26178794  0.34688142  0.34570312     0.05400
C630        C  0.24044060  0.33971371  0.37062147    -0.09100
C631        C  0.21947881  0.35786174  0.37544598     0.06200
C632        C  0.22046701  0.38308086  0.35736350    -0.13500
Br633      Br  0.21934628  0.39249035  0.24808720    -0.05600
Br634      Br  0.24774625  0.49331282  0.36377439     0.00000
Br635      Br  0.29118225  0.32317957  0.33986842     0.00500
Br636      Br  0.19189800  0.40763052  0.36500180    -0.03900
Br637      Br  0.23992454  0.44363497  0.19934127     0.00600
Br638      Br  0.26315773  0.43418537  0.39309766    -0.03200
Br639      Br  0.29229087  0.38123741  0.29410297    -0.04100
Br640      Br  0.18939142  0.34870992  0.40791370    -0.00100
C641        C  0.26011137  0.15284489  0.38182832     0.01300
C642        C  0.24377920  0.13187128  0.39529370     0.04100
C643        C  0.24687770  0.10601079  0.38045479    -0.11900
C644        C  0.26331961  0.10115813  0.34716062     0.23400
C645        C  0.27844635  0.12242059  0.33137316    -0.12500
C646        C  0.27757118  0.14789438  0.34956983     0.04900
C647        C  0.26022664  0.07532990  0.32477105     0.27300
C648        C  0.27870936  0.05499665  0.32727824    -0.13200
C649        C  0.27506472  0.03062873  0.30634476     0.05400
C650        C  0.25163967  0.02498995  0.28267849    -0.09100
C651        C  0.23345605  0.04742030  0.27998814     0.06200
C652        C  0.23768768  0.07129740  0.30166649    -0.13500
Br653      Br  0.29994285  0.11670967  0.28440472    -0.05600
Br654      Br  0.21445831  0.13911789  0.43025834     0.00000
Br655      Br  0.30369888  0.00587353  0.31256058     0.00500
Br656      Br  0.21306841  0.10075390  0.29815813    -0.03900
Br657      Br  0.30025735  0.17579881  0.33051806     0.00600
Br658      Br  0.22762347  0.07710229  0.40477453    -0.03200
Br659      Br  0.30914588  0.06093805  0.36096608    -0.04100
Br660      Br  0.20547925  0.05248764  0.24099035    -0.00100
O661        O  0.25849886  0.70113149  0.39022030    -0.80100
O662        O  0.25386022  0.70587448  0.62222604    -0.81700
O663        O  0.30667499  0.68502101  0.51112393    -0.78700
O664        O  0.22236889  0.67026228  0.51758417    -0.77100
O665        O  0.18678045  0.69591708  0.50894738    -0.78900
O666        O  0.33285793  0.72183769  0.51103076    -0.79800
O667        O  0.25953641  0.67688035  0.57074560    -0.81200
O668        O  0.26283394  0.67367983  0.44457447    -0.81400
Eu669      Eu  0.26058991  0.69893733  0.50682252     2.39200
O670        O  0.22980214  0.72159274  0.54620244    -0.89000
O671        O  0.28342630  0.72808586  0.46459373    -0.92600
C672        C  0.26091121  0.67778068  0.40649180     1.02100
C673        C  0.25725019  0.68187467  0.60826038     1.02000
C674        C  0.32924185  0.69669221  0.51224520     1.01900
C675        C  0.19737791  0.67364664  0.51746406     0.99800
H676        H  0.29316102  0.72076101  0.56689625     0.29500
O677        O  0.28087595  0.72971126  0.54986183    -1.01300
H678        H  0.22193721  0.70524254  0.44595712     0.29500
O679        O  0.23139624  0.71851368  0.46103240    -1.03900
O680        O  0.24361219  0.79878414  0.61741926    -0.81100
O681        O  0.24782837  0.79305334  0.38581647    -0.80600
O682        O  0.32518664  0.76468357  0.57153528    -0.79100
O683        O  0.17590230  0.74184702  0.56259168    -0.82400
O684        O  0.17954197  0.73837947  0.43622887    -0.80300
O685        O  0.32700485  0.75886477  0.44486008    -0.78900
O686        O  0.28147277  0.83175103  0.49746666    -0.80500
O687        O  0.19796527  0.81665027  0.50150040    -0.82400
O688        O  0.31767478  0.80567660  0.50316352    -0.79100
O689        O  0.17225423  0.77983193  0.49602457    -0.81800
O690        O  0.29497375  0.75991664  0.62230226    -0.77500
O691        O  0.30156896  0.75184997  0.39035113    -0.77600
O692        O  0.20960223  0.74305615  0.38529899    -0.77200
O693        O  0.20213505  0.75065604  0.61625731    -0.80700
O694        O  0.24305864  0.82649061  0.56356956    -0.80100
O695        O  0.24033982  0.82320140  0.43606184    -0.78400
Eu696      Eu  0.24972270  0.75219943  0.59074800     2.39800
Eu697      Eu  0.25458960  0.74798215  0.41751930     2.39600
Eu698      Eu  0.30313341  0.75943999  0.50734131     2.38400
Eu699      Eu  0.20122514  0.74171555  0.50085350     2.39900
Eu700      Eu  0.24386829  0.80192621  0.50085258     2.39800
O701        O  0.22380430  0.77086970  0.45835003    -0.92900
O702        O  0.27238864  0.78183305  0.54698236    -0.91800
C703        C  0.24228735  0.82233521  0.60161502     1.02300
C704        C  0.24274098  0.81684927  0.39884361     1.01000
C705        C  0.31893987  0.76386314  0.60902103     1.00400
C706        C  0.17900305  0.74689301  0.60004345     1.02400
C707        C  0.18565338  0.73988806  0.39875568     1.01300
C708        C  0.32448575  0.75574254  0.40705430     1.00200
C709        C  0.30643391  0.82828222  0.49906034     1.00300
C710        C  0.17549191  0.80493138  0.49902203     1.02900
H711        H  0.28466673  0.79197168  0.44461811     0.30200
O712        O  0.27486914  0.77950841  0.46095665    -1.05000
H713        H  0.20830639  0.78283243  0.55782750     0.32300
O714        O  0.22139843  0.77277039  0.54343267    -1.07600
N715        N  0.50962852  0.53931537  0.54395897    -0.36600
N716        N  0.46312388  0.00855156  0.52892568    -0.57200
N717        N  0.49420342  0.96204752  0.51817120    -0.36600
N718        N  0.04046537  0.99185031  0.53438108    -0.57200
C719        C  0.49212948  0.55827662  0.53440632     0.27000
C720        C  0.03382048  0.54951373  0.53751714     0.27000
C721        C  0.47128918  0.95455877  0.50146154     0.27000
C722        C  0.01275594  0.94525206  0.50480587     0.27000
C723        C  0.45240431  0.53095028  0.54287153     0.35600
C724        C  0.44396419  0.99015365  0.52953298     0.35600
C725        C  0.05910193  0.50847478  0.54805306     0.35600
C726        C  0.05045294  0.96729911  0.53698865     0.35600
C727        C  0.50532957  0.58097404  0.52236384    -0.21900
C728        C  0.03172735  0.57555188  0.52484253    -0.21900
C729        C  0.47520830  0.93269164  0.47703675    -0.21900
C730        C  0.00158842  0.92686354  0.47899085    -0.21900
C731        C  0.42625699  0.52675327  0.55309232    -0.23000
C732        C  0.42088024  0.00071241  0.54464165    -0.23000
C733        C  0.08110701  0.49448831  0.55983272    -0.23000
C734        C  0.07545459  0.96823796  0.55343089    -0.23000
C735        C  0.46463579  0.55573772  0.53844468    -0.18300
C736        C  0.05761403  0.53608504  0.54440605    -0.18300
C737        C  0.03883996  0.94499082  0.51865796    -0.18300
C738        C  0.44672295  0.96501444  0.51227205    -0.18300
H739        H  0.49686415  0.59959361  0.51323227     0.14600
H740        H  0.04751838  0.58923286  0.51791882     0.14600
H741        H  0.46046754  0.92165726  0.46058485     0.14600
H742        H  0.01126535  0.91049123  0.46424213     0.14600
H743        H  0.41225144  0.54130605  0.56343167     0.12900
H744        H  0.40195661  0.99100406  0.54743866     0.12900
H745        H  0.09957398  0.50240151  0.57064915     0.12900
H746        H  0.08877265  0.95192176  0.55806178     0.12900
H747        H  0.50540674  0.52129486  0.55770803     0.26100
H748        H  0.49624410  0.97520787  0.54204276     0.26100
O749        O  0.99735339  0.95163256  0.88984557    -0.80100
O750        O  0.00062299  0.95467625  0.12304070    -0.81700
O751        O  0.04012930  0.92513063  0.00018142    -0.78700
O752        O  0.45708741  0.92250448  0.01039035    -0.77100
O753        O  0.42499959  0.95313100  0.00531582    -0.78900
O754        O  0.07118653  0.95678397  0.99677648    -0.79800
O755        O  0.00056798  0.92432553  0.07178162    -0.81200
O756        O  0.99880476  0.92279833  0.94310497    -0.81400
Eu757      Eu  0.99821894  0.94679183  0.00691464     2.39200
O758        O  0.47259564  0.97277291  0.05020188    -0.89000
O759        O  0.02265228  0.97316012  0.96229646    -0.92600
C760        C  0.99851720  0.92798458  0.90520554     1.02100
C761        C  0.00133763  0.93045828  0.10937172     1.02000
C762        C  0.06403825  0.93244618  0.99586138     1.01900
C763        C  0.43290121  0.92901189  0.00710114     0.99800
H764        H  0.03689546  0.96260636  0.06256115     0.29500
O765        O  0.02523771  0.97360090  0.04729086    -1.01300
H766        H  0.45998975  0.95927881  0.94847556     0.29500
O767        O  0.47110179  0.97109185  0.96361782    -1.03900
O768        O  0.00417498  0.54765114  0.11773691    -0.81100
O769        O  0.99336828  0.54364219  0.88637113    -0.80600
O770        O  0.07513692  0.99953293  0.06529576    -0.79100
O771        O  0.42438505  0.99844434  0.07196570    -0.82400
O772        O  0.42015939  0.49618315  0.94487299    -0.80300
O773        O  0.07129793  0.49985011  0.93672596    -0.78900
O774        O  0.03861604  0.57344920  0.00307188    -0.80500
O775        O  0.45378328  0.57191633  0.00028141    -0.82400
O776        O  0.07111471  0.54299830  0.99977103    -0.79100
O777        O  0.42293596  0.53960500  0.00311263    -0.81800
O778        O  0.04656517  0.00033157  0.11882262    -0.77500
O779        O  0.04100905  0.49951602  0.88579799    -0.77600
O780        O  0.44851481  0.49663447  0.89117475    -0.77200
O781        O  0.45398619  0.00413548  0.12284082    -0.80700
O782        O  0.99724804  0.57502847  0.06478606    -0.80100
O783        O  0.99527552  0.57340547  0.93801239    -0.78400
Eu784      Eu  0.99967550  0.00049564  0.09122226     2.39800
Eu785      Eu  0.99563489  0.49794672  0.91806326     2.39600
Eu786      Eu  0.04987410  0.49973215  0.00238908     2.38400
Eu787      Eu  0.44557017  0.49712269  0.00675428     2.39900
Eu788      Eu  0.99652488  0.55054085  0.00244788     2.39800
O789        O  0.46983191  0.52370165  0.96225644    -0.92900
O790        O  0.02422178  0.52625961  0.04474470    -0.91800
C791        C  0.00222236  0.57121899  0.10206516     1.02300
C792        C  0.99362046  0.56775422  0.90036025     1.01000
C793        C  0.07026341  0.99961171  0.10342260     1.00400
C794        C  0.42996916  0.00275113  0.10906625     1.02400
C795        C  0.42486407  0.49603962  0.90682800     1.01300
C796        C  0.06509872  0.50023984  0.89920557     1.00200
C797        C  0.06291425  0.56698357  0.00064210     1.00300
C798        C  0.42974101  0.56404946  0.00064119     1.02900
H799        H  0.03329702  0.53640040  0.94314395     0.30200
O800        O  0.02267206  0.52486389  0.95976601    -1.05000
H801        H  0.46077409  0.53654945  0.06283035     0.32300
O802        O  0.47182167  0.52480980  0.04728384    -1.07600
N803        N  0.24720147  0.70764020  0.92291396    -0.36600
N804        N  0.28732646  0.74823342  0.92591907    -0.57200
N805        N  0.24761097  0.78960064  0.92247844    -0.36600
N806        N  0.20748546  0.74910815  0.92119933    -0.57200
C807        C  0.26822194  0.69268388  0.93249689     0.27000
C808        C  0.22551444  0.69347207  0.93269104     0.27000
C809        C  0.26867177  0.80374113  0.93481225     0.27000
C810        C  0.22612617  0.80426975  0.93068865     0.27000
C811        C  0.30315742  0.72697358  0.92379523     0.35600
C812        C  0.30320815  0.76962294  0.92441082     0.35600
C813        C  0.19165048  0.72776325  0.91885086     0.35600
C814        C  0.19192623  0.77032413  0.91630519     0.35600
C815        C  0.25974483  0.66813438  0.94602153    -0.21900
C816        C  0.23282821  0.66874700  0.94661084    -0.21900
C817        C  0.26056996  0.82805142  0.94951635    -0.21900
C818        C  0.23371276  0.82842734  0.94676785    -0.21900
C819        C  0.32919686  0.73494354  0.92041334    -0.23000
C820        C  0.32920835  0.76198329  0.92061713    -0.23000
C821        C  0.16596805  0.73537272  0.91160924    -0.23000
C822        C  0.16614422  0.76241066  0.90992003    -0.23000
C823        C  0.29486443  0.70075012  0.93078923    -0.18300
C824        C  0.19922240  0.70201709  0.92942848    -0.18300
C825        C  0.19979107  0.79644278  0.92454162    -0.18300
C826        C  0.29510022  0.79560103  0.93273823    -0.18300
H827        H  0.27167034  0.65168722  0.95567723     0.14600
H828        H  0.22012185  0.65281735  0.95660893     0.14600
H829        H  0.27271417  0.84384001  0.96137552     0.14600
H830        H  0.22120106  0.84452940  0.95621793     0.14600
H831        H  0.34651316  0.72263513  0.91969196     0.12900
H832        H  0.34648080  0.77456418  0.92013714     0.12900
H833        H  0.14873119  0.72280445  0.90973695     0.12900
H834        H  0.14903451  0.77483986  0.90666798     0.12900
H835        H  0.24760567  0.72586792  0.90867985     0.26100
H836        H  0.24803482  0.77184941  0.90681089     0.26100
C837        C  0.00484980  0.74965821  0.25741938    -0.02500
C838        C  0.24961432  0.49806012  0.25555488    -0.02500
C839        C  0.49922889  0.74942824  0.75318401    -0.02500
C840        C  0.24597326  0.00083026  0.75553147    -0.02500
C841        C  0.09432893  0.99791033  0.13002726     0.01300
C842        C  0.11168426  0.97620942  0.12587431     0.04100
C843        C  0.13642036  0.97584669  0.14542676    -0.11900
C844        C  0.14500203  0.99764761  0.16845929     0.23400
C845        C  0.12759916  0.51925365  0.17330959    -0.12500
C846        C  0.10240648  0.51925110  0.15473551     0.04900
C847        C  0.17175139  0.99733140  0.18878868     0.27300
C848        C  0.17373345  0.49090183  0.22954217    -0.13200
C849        C  0.19787994  0.49362764  0.25028769     0.05400
C850        C  0.22272537  0.99822958  0.22961447    -0.09100
C851        C  0.22036648  0.00140863  0.18630049     0.06200
C852        C  0.19511900  0.00314348  0.16760248    -0.13500
Br853      Br  0.13864239  0.54929748  0.20463825    -0.05600
Br854      Br  0.10164199  0.94657216  0.09306888     0.00000
Br855      Br  0.19396999  0.49575034  0.30793653     0.00500
Br856      Br  0.19200669  0.01386059  0.11205392    -0.03900
Br857      Br  0.07947801  0.54907537  0.16170097     0.00600
Br858      Br  0.15865217  0.94517423  0.14106625    -0.03200
Br859      Br  0.14251235  0.47853460  0.25734225    -0.04100
Br860      Br  0.24943805  0.00046630  0.14850610    -0.00100
C861        C  0.27697961  0.99789575  0.23005701     0.01300
C862        C  0.29540924  0.97578420  0.22771648     0.04100
C863        C  0.31846957  0.97724113  0.20392767    -0.11900
C864        C  0.32930636  0.00173326  0.19405442     0.23400
C865        C  0.31419082  0.52437751  0.20062625    -0.12500
C866        C  0.28759748  0.52225521  0.21319138     0.04900
C867        C  0.35594825  0.00363278  0.17465895     0.27300
C868        C  0.37945318  0.99910349  0.19633722    -0.13200
C869        C  0.40429016  0.99959350  0.17642864     0.05400
C870        C  0.40587867  0.00662929  0.13526043    -0.09100
C871        C  0.38240432  0.51541674  0.11650766     0.06200
C872        C  0.35774897  0.51121318  0.13425213    -0.13500
Br873      Br  0.33046510  0.55864051  0.19225388    -0.05600
Br874      Br  0.29875457  0.94641706  0.26449923     0.00000
Br875      Br  0.43561095  0.99174955  0.20630813     0.00500
Br876      Br  0.32630020  0.51523126  0.10229746    -0.03900
Br877      Br  0.26740658  0.55376628  0.20330623     0.00600
Br878      Br  0.33689020  0.94550837  0.18737345    -0.03200
Br879      Br  0.37744868  0.99261352  0.25334553    -0.04100
Br880      Br  0.38330830  0.53764446  0.06970673    -0.00100
C881        C  0.00401953  0.90710183  0.13719705     0.01300
C882        C  0.52425496  0.88858151  0.12981652     0.04100
C883        C  0.52415015  0.86348115  0.14842025    -0.11900
C884        C  0.00441128  0.85655827  0.17649610     0.23400
C885        C  0.98486327  0.87556409  0.18570981    -0.12500
C886        C  0.98448686  0.90046579  0.16581925     0.04900
C887        C  0.00471388  0.82932342  0.19562192     0.27300
C888        C  0.48823432  0.80890364  0.18176183    -0.13200
C889        C  0.48965449  0.78283017  0.19816357     0.05400
C890        C  0.00820132  0.77598720  0.22950211    -0.09100
C891        C  0.02790976  0.79622491  0.23618874     0.06200
C892        C  0.02427649  0.82273120  0.22341551    -0.13500
Br893      Br  0.95814243  0.86748380  0.22493837    -0.05600
Br894      Br  0.55278118  0.89767023  0.09426490     0.00000
Br895      Br  0.46762871  0.75741672  0.17146537     0.00500
Br896      Br  0.04616233  0.85071983  0.24494444    -0.03900
Br897      Br  0.95627414  0.92479110  0.17597909     0.00600
Br898      Br  0.55072162  0.83798191  0.13388877    -0.03200
Br899      Br  0.46328501  0.81728644  0.13984262    -0.04100
Br900      Br  0.06407456  0.78908741  0.24748510    -0.00100
C901        C  0.00549364  0.59655787  0.12648071     0.01300
C902        C  0.50692199  0.62135031  0.10586394     0.04100
C903        C  0.50290239  0.64528950  0.12628897    -0.11900
C904        C  0.00419224  0.64624572  0.16839973     0.23400
C905        C  0.00714072  0.62219232  0.18968861    -0.12500
C906        C  0.00642514  0.59743835  0.16920316     0.04900
C907        C  0.00331868  0.67276125  0.18924722     0.27300
C908        C  0.02341734  0.69152000  0.18294402    -0.13200
C909        C  0.02176811  0.71735662  0.19954949     0.05400
C910        C  0.00141663  0.72433258  0.22789875    -0.09100
C911        C  0.47903354  0.70627056  0.22775100     0.06200
C912        C  0.48081644  0.68061815  0.21043960    -0.13500
Br913      Br  0.01263779  0.62325941  0.24694217    -0.05600
Br914      Br  0.51985019  0.62463731  0.05132819     0.00000
Br915      Br  0.04867374  0.74171238  0.18223697     0.00500
Br916      Br  0.45137119  0.65610171  0.21304406    -0.03900
Br917      Br  0.00819584  0.56544678  0.20051640     0.00600
Br918      Br  0.49526234  0.67695252  0.09587022    -0.03200
Br919      Br  0.05513566  0.68038297  0.15541654    -0.04100
Br920      Br  0.44290026  0.71658614  0.23757678    -0.00100
C921        C  0.17899194  0.81567352  0.93426663     0.01300
C922        C  0.16757066  0.83096191  0.90371141     0.04100
C923        C  0.14806007  0.84935452  0.91357331    -0.11900
C924        C  0.14065354  0.85280672  0.95407029     0.23400
C925        C  0.15189162  0.83735094  0.98455907    -0.12500
C926        C  0.17084029  0.81851471  0.97458128     0.04900
C927        C  0.12124053  0.87296539  0.96495112     0.27300
C928        C  0.12925636  0.89932553  0.96907885    -0.13200
C929        C  0.11102314  0.91877448  0.98002336     0.05400
C930        C  0.08420514  0.91163647  0.98768005    -0.09100
C931        C  0.07667820  0.88433137  0.98436119     0.06200
C932        C  0.09521345  0.86541467  0.97249605    -0.13500
Br933      Br  0.14130810  0.84216878  0.03994327    -0.05600
Br934      Br  0.17875166  0.82664237  0.84867091     0.00000
Br935      Br  0.12450435  0.95471894  0.98307686     0.00500
Br936      Br  0.08521285  0.82863761  0.96587648    -0.03900
Br937      Br  0.18582471  0.79670511  0.01613987     0.00600
Br938      Br  0.13133909  0.86977586  0.87195229    -0.03200
Br939      Br  0.16574882  0.90849905  0.95945484    -0.04100
Br940      Br  0.04132607  0.87093296  0.99416998    -0.00100
C941        C  0.41302020  0.90753533  0.00264636     0.01300
C942        C  0.41962631  0.88319623  0.98355426     0.04100
C943        C  0.39975385  0.86494573  0.97388220    -0.11900
C944        C  0.37332532  0.87135938  0.98069259     0.23400
C945        C  0.36661629  0.89491739  0.00041226    -0.12500
C946        C  0.38645504  0.91222656  0.01350958     0.04900
C947        C  0.35266731  0.85259031  0.96844687     0.27300
C948        C  0.34446695  0.85157146  0.92802876    -0.13200
C949        C  0.32575435  0.83270327  0.91615545     0.05400
C950        C  0.31545869  0.81491896  0.94466155    -0.09100
C951        C  0.32388736  0.81572984  0.98494037     0.06200
C952        C  0.34235166  0.83474552  0.99691463    -0.13500
Br953      Br  0.33006954  0.90380570  0.00804181    -0.05600
Br954      Br  0.45520774  0.87405732  0.96828441     0.00000
Br955      Br  0.31449528  0.83064641  0.86090180     0.00500
Br956      Br  0.35381993  0.83624933  0.05215315    -0.03900
Br957      Br  0.37673586  0.94149912  0.04786555     0.00600
Br958      Br  0.40841818  0.83097871  0.95058908    -0.03200
Br959      Br  0.35911586  0.87577938  0.88903933    -0.04100
Br960      Br  0.31031538  0.79055475  0.02348536    -0.00100
C961        C  0.31516216  0.68152628  0.94325882     0.01300
C962        C  0.33123539  0.66922761  0.91432223     0.04100
C963        C  0.35109710  0.65193078  0.92670901    -0.11900
C964        C  0.35363396  0.64552191  0.96777522     0.23400
C965        C  0.33715943  0.65734722  0.99661700    -0.12500
C966        C  0.31856197  0.67604957  0.98452031     0.04900
C967        C  0.37210788  0.62464521  0.97999252     0.27300
C968        C  0.36564501  0.59817139  0.97221908    -0.13200
C969        C  0.38443009  0.57832888  0.97788076     0.05400
C970        C  0.40876905  0.58445060  0.99679937    -0.09100
C971        C  0.41357545  0.61096770  0.00926180     0.06200
C972        C  0.39612810  0.63113002  0.99819160    -0.13500
Br973      Br  0.33924862  0.64694103  0.05233750    -0.05600
Br974      Br  0.32560091  0.67570747  0.85786248     0.00000
Br975      Br  0.37662587  0.54394523  0.95544130     0.00500
Br976      Br  0.40559121  0.66780936  0.00592791    -0.03900
Br977      Br  0.29745901  0.69393703  0.02444472     0.00600
Br978      Br  0.37469185  0.63669131  0.88754152    -0.03200
Br979      Br  0.33083881  0.58947246  0.95303895    -0.04100
Br980      Br  0.44365365  0.62056353  0.04167094    -0.00100
C981        C  0.17832811  0.68345697  0.94222502     0.01300
C982        C  0.16787015  0.68530248  0.98147989     0.04100
C983        C  0.14908774  0.66683557  0.99453473    -0.11900
C984        C  0.14128511  0.64631835  0.96863336     0.23400
C985        C  0.15148244  0.64468144  0.92925466    -0.12500
C986        C  0.16980125  0.66349093  0.91588472     0.04900
C987        C  0.12089685  0.62745877  0.98149936     0.27300
C988        C  0.12765821  0.60466844  0.00310222    -0.13200
C989        C  0.10828927  0.58568301  0.01219472     0.05400
C990        C  0.08249967  0.58859371  0.99669600    -0.09100
C991        C  0.07606106  0.61181707  0.97487849     0.06200
C992        C  0.09492053  0.63171459  0.96949308    -0.13500
Br993      Br  0.14004481  0.61686536  0.89355456    -0.05600
Br994      Br  0.17933758  0.71303794  0.01735125     0.00000
Br995      Br  0.11765921  0.55622935  0.04625360     0.00500
Br996      Br  0.08560728  0.66483292  0.94446824    -0.03900
Br997      Br  0.18295661  0.66238110  0.86143423     0.00600
Br998      Br  0.13347796  0.66983673  0.04733631    -0.03200
Br999      Br  0.16369923  0.59934170  0.01907467    -0.04100
Br1000     Br  0.04295159  0.61602222  0.94722746    -0.00100
C1001       C  0.27118290  0.49708129  0.78493882     0.01300
C1002       C  0.27744813  0.51555365  0.81673765     0.04100
C1003       C  0.30259266  0.51562852  0.83602221    -0.11900
C1004       C  0.32305819  0.49906961  0.82263605     0.23400
C1005       C  0.31691539  0.98021178  0.79321490    -0.12500
C1006       C  0.29079719  0.97675208  0.77957608     0.04900
C1007       C  0.34976635  0.49850057  0.84306738     0.27300
C1008       C  0.36996185  0.51709861  0.83418798    -0.13200
C1009       C  0.39493234  0.51567332  0.85324382     0.05400
C1010       C  0.40052349  0.49525182  0.88084209    -0.09100
C1011       C  0.38036306  0.47649203  0.88914457     0.06200
C1012       C  0.35531215  0.47827255  0.87094817    -0.13500
Br1013     Br  0.34454689  0.95792706  0.77228102    -0.05600
Br1014     Br  0.25311885  0.54199213  0.83486442     0.00000
Br1015     Br  0.42070576  0.54315585  0.84421611     0.00500
Br1016     Br  0.32798710  0.95324252  0.88537574    -0.03900
Br1017     Br  0.28283324  0.93981244  0.77143566     0.00600
Br1018     Br  0.30980460  0.53934172  0.88003856    -0.03200
Br1019     Br  0.36358900  0.54511155  0.79662411    -0.04100
Br1020     Br  0.38679541  0.44783362  0.92569405    -0.00100
C1021       C  0.08836843  0.50237584  0.87130816     0.01300
C1022       C  0.10840622  0.52088031  0.88065831     0.04100
C1023       C  0.13372608  0.51884182  0.86369773    -0.11900
C1024       C  0.13920174  0.49950511  0.83440655     0.23400
C1025       C  0.11857305  0.98228188  0.82223191    -0.12500
C1026       C  0.09331365  0.98369304  0.84062344     0.04900
C1027       C  0.16616962  0.49923054  0.81515690     0.27300
C1028       C  0.17297133  0.51892408  0.78737660    -0.13200
C1029       C  0.19953860  0.52331514  0.77620493     0.05400
C1030       C  0.21948008  0.50345009  0.78273655    -0.09100
C1031       C  0.21214583  0.98404249  0.81280610     0.06200
C1032       C  0.18629413  0.98297551  0.82971808    -0.13500
Br1033     Br  0.12484209  0.95641151  0.78100140    -0.05600
Br1034     Br  0.10068689  0.55061414  0.91467782     0.00000
Br1035     Br  0.20676494  0.56049029  0.76972860     0.00500
Br1036     Br  0.17789828  0.95907176  0.87331705    -0.03900
Br1037     Br  0.06555033  0.96030784  0.82350661     0.00600
Br1038     Br  0.16139432  0.54234335  0.88157330    -0.03200
Br1039     Br  0.14544931  0.54107818  0.76595601    -0.04100
Br1040     Br  0.23615496  0.95834895  0.83352495    -0.00100
C1041       C  0.99182650  0.59159799  0.87309332     0.01300
C1042       C  0.97699787  0.61370066  0.88620333     0.04100
C1043       C  0.98026866  0.63878753  0.86862576    -0.11900
C1044       C  0.99542142  0.64177396  0.83355959     0.23400
C1045       C  0.50806214  0.61926376  0.81725790    -0.12500
C1046       C  0.50729883  0.59461526  0.83788666     0.04900
C1047       C  0.99647623  0.66834759  0.81309842     0.27300
C1048       C  0.47489507  0.67721949  0.79121430    -0.13200
C1049       C  0.47570206  0.70167465  0.77029038     0.05400
C1050       C  0.49723131  0.72083254  0.77579808    -0.09100
C1051       C  0.01928083  0.71026297  0.79827913     0.06200
C1052       C  0.01853746  0.68478501  0.81641910    -0.13500
Br1053     Br  0.52630095  0.62234618  0.76657936    -0.05600
Br1054     Br  0.94992635  0.60962502  0.92582886     0.00000
Br1055     Br  0.44992858  0.70101381  0.72721096     0.00500
Br1056     Br  0.04765680  0.67201330  0.84818285    -0.03900
Br1057     Br  0.52850481  0.56575250  0.81886105     0.00600
Br1058     Br  0.96409753  0.66943126  0.89303349    -0.03200
Br1059     Br  0.44425344  0.65396239  0.78828706    -0.04100
Br1060     Br  0.05180075  0.72917953  0.80703882    -0.00100
C1061       C  0.99952856  0.90423150  0.87868901     0.01300
C1062       C  0.47600912  0.89224638  0.86548588     0.04100
C1063       C  0.47617890  0.86633916  0.84942976    -0.11900
C1064       C  0.00002596  0.85234128  0.84516755     0.23400
C1065       C  0.02370061  0.86475698  0.85706574    -0.12500
C1066       C  0.02337053  0.89035544  0.87414017     0.04900
C1067       C  0.00031757  0.82603365  0.82386085     0.27300
C1068       C  0.50174555  0.80199947  0.84489243    -0.13200
C1069       C  0.50046198  0.77713612  0.82451887     0.05400
C1070       C  0.49954167  0.77577870  0.78077842    -0.09100
C1071       C  0.99839100  0.80135184  0.76061946     0.06200
C1072       C  0.99878749  0.82553038  0.78198910    -0.13500
Br1073     Br  0.05670111  0.84679399  0.84987502    -0.05600
Br1074     Br  0.44343709  0.91130313  0.87020722     0.00000
Br1075     Br  0.49757701  0.74723592  0.86075527     0.00500
Br1076     Br  0.99968431  0.85915343  0.75373096    -0.03900
Br1077     Br  0.05574109  0.90656324  0.89138907     0.00600
Br1078     Br  0.44361278  0.84973626  0.83355291    -0.03200
Br1079     Br  0.50605280  0.80382953  0.90271945    -0.04100
Br1080     Br  0.00014075  0.80581655  0.70278782    -0.00100
C1081       C  0.34210839  0.76677774  0.63704748     0.01300
C1082       C  0.36154478  0.78641567  0.62916561     0.04100
C1083       C  0.38684728  0.78505521  0.64683562    -0.11900
C1084       C  0.39352469  0.76387894  0.67238526     0.23400
C1085       C  0.37343786  0.74549750  0.68292066    -0.12500
C1086       C  0.34792308  0.74714468  0.66581653     0.04900
C1087       C  0.42093699  0.76201003  0.69028108     0.27300
C1088       C  0.44305368  0.75432429  0.66741344    -0.13200
C1089       C  0.46879387  0.75302126  0.68480899     0.05400
C1090       C  0.47228808  0.75414603  0.72817753    -0.09100
C1091       C  0.44838854  0.76057744  0.75025597     0.06200
C1092       C  0.42474719  0.76761817  0.73091755    -0.13500
Br1093     Br  0.38081457  0.71748396  0.72039030    -0.05600
Br1094     Br  0.35330279  0.81591276  0.59468790     0.00000
Br1095     Br  0.49697156  0.75041601  0.64596658    -0.00500
Br1096     Br  0.39666439  0.78463359  0.76060196    -0.03900
Br1097     Br  0.32117438  0.72190786  0.68113319     0.00600
Br1098     Br  0.41242207  0.81260523  0.63672878    -0.03200
Br1099     Br  0.43739565  0.74408807  0.61208537    -0.04100
Br1100     Br  0.44380666  0.75513932  0.80716725    -0.00100
C1101       C  0.15341197  0.74853802  0.62401065     0.01300
C1102       C  0.12894701  0.75314415  0.60363706     0.04100
C1103       C  0.10464535  0.75133657  0.62400952    -0.11900
C1104       C  0.10371262  0.74571069  0.66515388     0.23400
C1105       C  0.12751984  0.74258695  0.68633902    -0.12500
C1106       C  0.15218604  0.74450578  0.66628132     0.04900
C1107       C  0.07765573  0.74620105  0.68659504     0.27300
C1108       C  0.06956685  0.76929681  0.70549219    -0.13200
C1109       C  0.04766365  0.76899891  0.73151458     0.05400
C1110       C  0.02700815  0.74874027  0.72823264    -0.09100
C1111       C  0.03541409  0.72564191  0.70545064     0.06200
C1112       C  0.06087752  0.72416609  0.68744330    -0.13500
Br1113     Br  0.12603209  0.73545751  0.74326883    -0.05600
Br1114     Br  0.12677314  0.76437155  0.54825080     0.00000
Br1115     Br  0.05573024  0.79140987  0.77761483     0.00500
Br1116     Br  0.07332210  0.69197104  0.66246348    -0.03900
Br1117     Br  0.18371911  0.74276489  0.69809922     0.00600
Br1118     Br  0.07190404  0.75738765  0.59582885    -0.03200
Br1119     Br  0.09032065  0.80126800  0.69802258    -0.04100
Br1120     Br  0.01386950  0.69464446  0.69650665    -0.00100
C1121       C  0.25040729  0.52723098  0.72838134     0.01300
C1122       C  0.23305330  0.53489332  0.69622258     0.04100
C1123       C  0.23235411  0.56147214  0.68179038    -0.11900
C1124       C  0.24959834  0.58096336  0.69680886     0.23400
C1125       C  0.26866890  0.57319015  0.72450662    -0.12500
C1126       C  0.27102711  0.54637541  0.73593630     0.04900
C1127       C  0.25219536  0.60748281  0.67623998     0.27300
C1128       C  0.26626548  0.60891266  0.63991174    -0.13200
C1129       C  0.26935872  0.63316580  0.61938568     0.05400
C1130       C  0.25803689  0.65718850  0.63474957    -0.09100
C1131       C  0.24534572  0.65574496  0.67288356     0.06200
C1132       C  0.24237940  0.63110536  0.69318965    -0.13500
Br1133     Br  0.29383176  0.59922530  0.74343430    -0.05600
Br1134     Br  0.21190306  0.51006420  0.66680565     0.00000
Br1135     Br  0.29004902  0.63159875  0.57023827     0.00500
Br1136     Br  0.22463516  0.62954397  0.74441813    -0.03900
Br1137     Br  0.30735516  0.53677061  0.74182973     0.00600
Br1138     Br  0.20635152  0.57225915  0.64305829    -0.03200
Br1139     Br  0.28170828  0.57686113  0.61831730    -0.04100
Br1140     Br  0.23143034  0.68701948  0.69800948    -0.00100
C1141       C  0.24278472  0.97529758  0.72650579     0.01300
C1142       C  0.22108798  0.95685034  0.72962005     0.04100
C1143       C  0.22348607  0.93028499  0.71717844    -0.11900
C1144       C  0.24391514  0.92265193  0.69151136     0.23400
C1145       C  0.26257651  0.94190971  0.68002392    -0.12500
C1146       C  0.26216115  0.96786529  0.69687901     0.04900
C1147       C  0.24252765  0.89630901  0.67033350     0.27300
C1148       C  0.25216416  0.87284766  0.68782061    -0.13200
C1149       C  0.25116373  0.84845158  0.66666217     0.05400
C1150       C  0.24020643  0.84705112  0.62742284    -0.09100
C1151       C  0.22916477  0.87075854  0.61113016     0.06200
C1152       C  0.23052881  0.89489626  0.63239196    -0.13500
Br1153     Br  0.29021405  0.93146401  0.64349088    -0.05600
Br1154     Br  0.18482329  0.96769253  0.73021977     0.00000
Br1155     Br  0.26620100  0.81762390  0.69174987     0.00500
Br1156     Br  0.21581242  0.92673007  0.60941315    -0.03900
Br1157     Br  0.28846665  0.99186473  0.67707301     0.00600
Br1158     Br  0.19699323  0.90456669  0.73246825    -0.03200
Br1159     Br  0.26698963  0.87414644  0.74097416    -0.04100
Br1160     Br  0.21162536  0.87176857  0.55945407    -0.00100
C1161       C  0.35248221  0.67988352  0.51629883     0.01300
C1162       C  0.37015460  0.67666120  0.48400759     0.04100
C1163       C  0.39165867  0.65956421  0.48808945    -0.11900
C1164       C  0.39339830  0.64313064  0.52220900     0.23400
C1165       C  0.37522419  0.64595950  0.55398955    -0.12500
C1166       C  0.35628693  0.66588593  0.55227001     0.04900
C1167       C  0.41335181  0.62204338  0.52404508     0.27300
C1168       C  0.41157660  0.60025154  0.49774983    -0.13200
C1169       C  0.43013590  0.57999685  0.50010562     0.05400
C1170       C  0.44776263  0.57924324  0.53278701    -0.09100
C1171       C  0.44887739  0.60056087  0.56005060     0.06200
C1172       C  0.43309346  0.62282157  0.55369975    -0.13500
Br1173     Br  0.37478892  0.62141896  0.59847178    -0.05600
Br1174     Br  0.36390806  0.69398393  0.43342668     0.00000
Br1175     Br  0.43163495  0.55373215  0.45790004     0.00500
Br1176     Br  0.43841898  0.65427275  0.58562909    -0.03900
Br1177     Br  0.33702904  0.67540499  0.60003136     0.00600
Br1178     Br  0.41842954  0.65824146  0.44690797    -0.03200
Br1179     Br  0.38280144  0.59704558  0.46023323    -0.04100
Br1180     Br  0.47055921  0.59863667  0.60745933    -0.00100
C1181       C  0.08231779  0.55145413  0.54339110     0.01300
C1182       C  0.09379746  0.56021476  0.57947207     0.04100
C1183       C  0.11583739  0.57695402  0.57812164    -0.11900
C1184       C  0.12562069  0.58563850  0.54071915     0.23400
C1185       C  0.11499751  0.57576970  0.50466739    -0.12500
C1186       C  0.09341120  0.55849599  0.50599403     0.04900
C1187       C  0.14447488  0.60778759  0.53899418     0.27300
C1188       C  0.13489257  0.63367990  0.53975825    -0.13200
C1189       C  0.15214067  0.65515993  0.53478279     0.05400
C1190       C  0.17951835  0.65079705  0.52770376    -0.09100
C1191       C  0.18912819  0.62433641  0.53085844     0.06200
C1192       C  0.17145035  0.60305711  0.53558995    -0.13500
Br1193     Br  0.12927600  0.58703418  0.45357420    -0.05600
Br1194     Br  0.07830782  0.55054103  0.63044100     0.00000
Br1195     Br  0.13690699  0.68997043  0.54103674     0.00500
Br1196     Br  0.18372648  0.56694421  0.53680886    -0.03900
Br1197     Br  0.07780576  0.54595111  0.45662573     0.00600
Br1198     Br  0.13205368  0.58890427  0.62722628    -0.03200
Br1199     Br  0.09755735  0.63947070  0.54727035    -0.04100
Br1200     Br  0.22606266  0.61559329  0.53066694    -0.00100
C1201       C  0.15182237  0.82144245  0.50186434     0.01300
C1202       C  0.14662124  0.83505939  0.53794383     0.04100
C1203       C  0.12675423  0.85413911  0.53928898    -0.11900
C1204       C  0.11067081  0.85809152  0.50547989     0.23400
C1205       C  0.11397206  0.84237944  0.47087027    -0.12500
C1206       C  0.13448465  0.82389076  0.46914526     0.04900
C1207       C  0.09082273  0.87927992  0.50599064     0.27300
C1208       C  0.06729411  0.87609379  0.52799359    -0.13200
C1209       C  0.05005395  0.89752844  0.53224778     0.05400
C1210       C  0.05525543  0.92132078  0.51147661    -0.09100
C1211       C  0.07730975  0.92330235  0.48588162     0.06200
C1212       C  0.09592506  0.90302427  0.48526699    -0.13500
Br1213     Br  0.09083578  0.84701993  0.42559210    -0.05600
Br1214     Br  0.16463415  0.82532227  0.58668219     0.00000
Br1215     Br  0.02023239  0.89465111  0.56809730     0.00500
Br1216     Br  0.12920428  0.90854477  0.45843509    -0.03900
Br1217     Br  0.13844752  0.80171668  0.42250935     0.00600
Br1218     Br  0.12238764  0.87566874  0.58677109    -0.03200
Br1219     Br  0.05914624  0.84259016  0.55297823    -0.04100
Br1220     Br  0.08189613  0.95375796  0.45151295    -0.00100
C1221       C  0.32352598  0.85170480  0.49518590     0.01300
C1222       C  0.34428126  0.85151683  0.46696480     0.04100
C1223       C  0.36318605  0.87172792  0.46726629    -0.11900
C1224       C  0.36002174  0.89339796  0.49323698     0.23400
C1225       C  0.33776082  0.89513467  0.51830005    -0.12500
C1226       C  0.31990148  0.87392516  0.52027259     0.04900
C1227       C  0.38161510  0.91257244  0.49802361     0.27300
C1228       C  0.39852810  0.90994673  0.53120039    -0.13200
C1229       C  0.41908028  0.92799704  0.53661191     0.05400
C1230       C  0.42346337  0.94791895  0.50791418    -0.09100
C1231       C  0.40687215  0.95043987  0.47438176     0.06200
C1232       C  0.38565325  0.93287735  0.46963717    -0.13500
Br1233     Br  0.33279315  0.92608205  0.55139122    -0.05600
Br1234     Br  0.34612682  0.82448070  0.42629937     0.00000
Br1235     Br  0.44143678  0.92547211  0.58328301     0.00500
Br1236     Br  0.36260959  0.93611329  0.42398001    -0.03900
Br1237     Br  0.29196119  0.87473809  0.55956040     0.00600
Br1238     Br  0.39429951  0.86885786  0.43413880    -0.03200
Br1239     Br  0.39426255  0.88089747  0.56833117    -0.04100
Br1240     Br  0.41387862  0.97731843  0.43459283    -0.00100
C1241       C  0.16236819  0.73855151  0.37107619     0.01300
C1242       C  0.14227658  0.71975270  0.37913539     0.04100
C1243       C  0.11670204  0.72291079  0.36344128    -0.11900
C1244       C  0.11082220  0.74418764  0.33754408     0.23400
C1245       C  0.13136835  0.76204311  0.32728950    -0.12500
C1246       C  0.15695142  0.75917437  0.34373725     0.04900
C1247       C  0.08362425  0.74592208  0.31917777     0.27300
C1248       C  0.07649215  0.72805791  0.28893806    -0.13200
C1249       C  0.04989207  0.72472541  0.27797910     0.05400
C1250       C  0.03050536  0.74490320  0.28599420    -0.09100
C1251       C  0.03743682  0.76139535  0.31996797     0.06200
C1252       C  0.06352370  0.76148989  0.33622602    -0.13500
Br1253     Br  0.12452918  0.79132973  0.29224207    -0.05600
Br1254     Br  0.14999385  0.68895385  0.41130579     0.00000
Br1255     Br  0.04136692  0.68755103  0.27365485     0.00500
Br1256     Br  0.07237199  0.78364479  0.38139237    -0.03900
Br1257     Br  0.18413953  0.78447009  0.33038972     0.00600
Br1258     Br  0.08922692  0.69838455  0.37879998    -0.03200
Br1259     Br  0.10308322  0.70562254  0.26529901    -0.04100
Br1260     Br  0.01218064  0.78195259  0.34938728    -0.00100
C1261       C  0.35047837  0.75645121  0.38357886     0.01300
C1262       C  0.35184327  0.75222107  0.34125133     0.04100
C1263       C  0.37653168  0.75058918  0.32117517    -0.11900
C1264       C  0.40032081  0.75502102  0.34197692     0.23400
C1265       C  0.39919910  0.76156002  0.38295040    -0.12500
C1266       C  0.37511056  0.76098149  0.40419961     0.04900
C1267       C  0.42680375  0.75368079  0.32136777     0.27300
C1268       C  0.44475939  0.73351602  0.33080216    -0.13200
C1269       C  0.47054700  0.73324034  0.31384785     0.05400
C1270       C  0.47911682  0.75316920  0.28563013    -0.09100
C1271       C  0.46205501  0.77595722  0.28410298     0.06200
C1272       C  0.43569420  0.77482136  0.29775372    -0.13500
Br1273     Br  0.43140247  0.77209543  0.40994544    -0.05600
Br1274     Br  0.32044819  0.74915887  0.30913435     0.00000
Br1275     Br  0.49239174  0.70454576  0.33040000     0.00500
Br1276     Br  0.41204450  0.80389383  0.28713546    -0.03900
Br1277     Br  0.37859800  0.76566565  0.46220656     0.00600
Br1278     Br  0.37784802  0.74242653  0.26456234    -0.03200
Br1279     Br  0.43275267  0.70483387  0.36470191    -0.04100
Br1280     Br  0.47485874  0.81183943  0.28213105    -0.00100
C1281       C  0.24660155  0.97033133  0.27959314     0.01300
C1282       C  0.24950691  0.96620643  0.32264722     0.04100
C1283       C  0.25093227  0.94013473  0.33881117    -0.11900
C1284       C  0.24345886  0.91797759  0.31598106     0.23400
C1285       C  0.23548628  0.92185219  0.27639360    -0.12500
C1286       C  0.23959231  0.94647906  0.25726559     0.04900
C1287       C  0.24236639  0.89070940  0.33408948     0.27300
C1288       C  0.26264032  0.87211512  0.32732347    -0.13200
C1289       C  0.26178831  0.84689531  0.34571077     0.05400
C1290       C  0.24044590  0.83972130  0.37063427    -0.09100
C1291       C  0.21947513  0.85785904  0.37545472     0.06200
C1292       C  0.22044705  0.88307355  0.35735752    -0.13500
Br1293     Br  0.21929465  0.89250834  0.24807617    -0.05600
Br1294     Br  0.24772392  0.99330802  0.36378007     0.00000
Br1295     Br  0.29120898  0.82322211  0.33991924     0.00500
Br1296     Br  0.19186663  0.90761079  0.36499180    -0.03900
Br1297     Br  0.23994203  0.94363392  0.19933765     0.00600
Br1298     Br  0.26311579  0.93417360  0.39310084    -0.03200
Br1299     Br  0.29224971  0.88124108  0.29404033    -0.04100
Br1300     Br  0.18940148  0.84870414  0.40794647    -0.00100
C1301       C  0.26010565  0.65285596  0.38180566     0.01300
C1302       C  0.24377017  0.63188637  0.39527569     0.04100
C1303       C  0.24686413  0.60602379  0.38044297    -0.11900
C1304       C  0.26330894  0.60116397  0.34715424     0.23400
C1305       C  0.27843926  0.62242279  0.33136193    -0.12500
C1306       C  0.27756400  0.64790029  0.34954730     0.04900
C1307       C  0.26021758  0.57533187  0.32477343     0.27300
C1308       C  0.27870449  0.55500173  0.32728001    -0.13200
C1309       C  0.27506918  0.53063643  0.30633473     0.05400
C1310       C  0.25164610  0.52499443  0.28266649    -0.09100
C1311       C  0.23345872  0.54742174  0.27997684     0.06200
C1312       C  0.23767858  0.57129419  0.30167072    -0.13500
Br1313     Br  0.29994284  0.61670135  0.28440377    -0.05600
Br1314     Br  0.21445252  0.63914221  0.43024283     0.00000
Br1315     Br  0.30371243  0.50588887  0.31253401     0.00500
Br1316     Br  0.21303642  0.60073341  0.29819441    -0.03900
Br1317     Br  0.30024436  0.67580426  0.33047592     0.00600
Br1318     Br  0.22759560  0.57712328  0.40475900    -0.03200
Br1319     Br  0.30912666  0.56093831  0.36099914    -0.04100
Br1320     Br  0.20549869  0.55249826  0.24095306    -0.00100
O1321       O  0.75849845  0.20112002  0.39023857    -0.80100
O1322       O  0.75384054  0.20588908  0.62224680    -0.81700
O1323       O  0.80666734  0.18502457  0.51116702    -0.78700
O1324       O  0.72235620  0.17026243  0.51758400    -0.77100
O1325       O  0.68676782  0.19591387  0.50893959    -0.78900
O1326       O  0.83284731  0.22184347  0.51107137    -0.79800
O1327       O  0.75951885  0.17688882  0.57077471    -0.81200
O1328       O  0.76283033  0.17367152  0.44459776    -0.81400
Eu1329     Eu  0.76058059  0.19893606  0.50684010     2.39200
O1330       O  0.72978600  0.22159259  0.54620546    -0.89000
O1331       O  0.78341819  0.22808304  0.46460776    -0.92600
C1332       C  0.76091058  0.17777016  0.40651386     1.02100
C1333       C  0.75723176  0.18188781  0.60828848     1.02000
C1334       C  0.82923334  0.19669776  0.51229438     1.01900
C1335       C  0.69736489  0.17364402  0.51745531     0.99800
H1336       H  0.79314282  0.22077205  0.56691325     0.29500
O1337       O  0.78086048  0.22971738  0.54987436    -1.01300
H1338       H  0.72193208  0.20522943  0.44595543     0.29500
O1339       O  0.73139218  0.21850709  0.46103601    -1.03900
O1340       O  0.74358906  0.29878829  0.61741142    -0.81100
O1341       O  0.74781876  0.29304404  0.38581143    -0.80600
O1342       O  0.82517017  0.26470796  0.57154654    -0.79100
O1343       O  0.67588054  0.24183896  0.56256822    -0.82400
O1344       O  0.67953814  0.23835927  0.43620773    -0.80300
O1345       O  0.82699602  0.25885235  0.44486952    -0.78900
O1346       O  0.78145224  0.33175386  0.49744907    -0.80500
O1347       O  0.69794359  0.31663867  0.50148942    -0.82400
O1348       O  0.81765557  0.30568087  0.50314799    -0.79100
O1349       O  0.67223708  0.27981669  0.49601279    -0.81800
O1350       O  0.79495050  0.25993756  0.62230358    -0.77500
O1351       O  0.80156389  0.25184887  0.39035359    -0.77600
O1352       O  0.70960473  0.24304411  0.38528716    -0.77200
O1353       O  0.70210592  0.25066689  0.61623417    -0.80700
O1354       O  0.74303854  0.32649441  0.56356029    -0.80100
O1355       O  0.74032127  0.32319485  0.43604946    -0.78400
Eu1356     Eu  0.74970070  0.25220598  0.59074672     2.39800
Eu1357     Eu  0.75458519  0.24797468  0.41752203     2.39600
Eu1358     Eu  0.80312062  0.25944312  0.50735081     2.38400
Eu1359     Eu  0.70121383  0.24170860  0.50084088     2.39900
Eu1360     Eu  0.74385022  0.30192533  0.50084382     2.39800
O1361       O  0.72379311  0.27086404  0.45833929    -0.92900
O1362       O  0.77236902  0.28183674  0.54698003    -0.91800
C1363       C  0.74226681  0.32233862  0.60160642     1.02300
C1364       C  0.74272784  0.31684079  0.39883286     1.01000
C1365       C  0.81891816  0.26388904  0.60903075     1.00400
C1366       C  0.67897569  0.24689621  0.60001722     1.02400
C1367       C  0.68565506  0.23987123  0.39873636     1.01300
C1368       C  0.82447993  0.25573671  0.40706146     1.00200
C1369       C  0.80641373  0.32828546  0.49903720     1.00300
C1370       C  0.67547205  0.30491582  0.49901269     1.02900
H1371       H  0.78465662  0.29197089  0.44461439     0.30200
O1372       O  0.77485665  0.27950541  0.46095918    -1.05000
H1373       H  0.70828793  0.28282867  0.55780825     0.32300
O1374       O  0.72137914  0.27276929  0.54342090    -1.07600
N1375       N  0.00963409  0.03932442  0.54410851    -0.36600
N1376       N  0.96312252  0.50853150  0.52881042    -0.57200
N1377       N  0.99421091  0.46203496  0.51807911    -0.36600
N1378       N  0.54046999  0.49185236  0.53425556    -0.57200
C1379       C  0.99214167  0.05829088  0.53455054     0.27000
C1380       C  0.53382921  0.04951509  0.53767641     0.27000
C1381       C  0.97129912  0.45453649  0.50137150     0.27000
C1382       C  0.51276708  0.44523994  0.50472504     0.27000
C1383       C  0.95240946  0.03097207  0.54299031     0.35600
C1384       C  0.94396670  0.49012997  0.52942609     0.35600
C1385       C  0.55909903  0.00846510  0.54819296     0.35600
C1386       C  0.55045920  0.46730387  0.53689274     0.35600
C1387       C  0.00535053  0.08098542  0.52251665    -0.21900
C1388       C  0.53174539  0.07555484  0.52500442    -0.21900
C1389       C  0.97522408  0.43266385  0.47696035    -0.21900
C1390       C  0.50160521  0.42684175  0.47892028    -0.21900
C1391       C  0.92626030  0.02677967  0.55320435    -0.23000
C1392       C  0.92088155  0.50068552  0.54453534    -0.23000
C1393       C  0.58110298  0.99447072  0.55995580    -0.23000
C1394       C  0.57546015  0.46825236  0.55333651    -0.23000
C1395       C  0.96464581  0.05575797  0.53856905    -0.18300
C1396       C  0.55761863  0.03607717  0.54456125    -0.18300
C1397       C  0.53884888  0.44498718  0.51858477    -0.18300
C1398       C  0.94673038  0.46498927  0.51217378    -0.18300
H1399       H  0.99689183  0.09960740  0.51338171     0.14600
H1400       H  0.54754176  0.08923046  0.51808414     0.14600
H1401       H  0.96048634  0.42162172  0.46051399     0.14600
H1402       H  0.51128660  0.41046715  0.46418432     0.14600
H1403       H  0.91225681  0.04133469  0.56354318     0.12900
H1404       H  0.90196019  0.49097345  0.54733845     0.12900
H1405       H  0.59957129  0.00237759  0.57077767     0.12900
H1406       H  0.58877895  0.45193941  0.55798840     0.12900
H1407       H  0.00540511  0.02130062  0.55784887     0.26100
H1408       H  0.99624880  0.47520152  0.54194353     0.26100
O1409       O  0.49736525  0.45164266  0.88985033    -0.80100
O1410       O  0.50064418  0.45466607  0.12302494    -0.81700
O1411       O  0.54013271  0.42514167  0.00017953    -0.78700
O1412       O  0.95708705  0.42251776  0.01040288    -0.77100
O1413       O  0.92499781  0.45314248  0.00532940    -0.78900
O1414       O  0.57119017  0.45679501  0.99677721    -0.79800
O1415       O  0.50058505  0.42431900  0.07176159    -0.81200
O1416       O  0.49880144  0.42280661  0.94310824    -0.81400
Eu1417     Eu  0.49822197  0.44680117  0.00691551     2.39200
O1418       O  0.97259675  0.47277927  0.05020495    -0.89000
O1419       O  0.52266073  0.47316924  0.96230526    -0.92600
C1420       C  0.49852114  0.42799406  0.90520935     1.02100
C1421       C  0.50136130  0.43044828  0.10935139     1.02000
C1422       C  0.56404149  0.43245744  0.99585915     1.01900
C1423       C  0.93289992  0.42902380  0.00712070     0.99800
H1424       H  0.53689702  0.46261572  0.06256258     0.29500
O1425       O  0.52524252  0.47360540  0.04729958    -1.01300
H1426       H  0.95999643  0.45929245  0.94848332     0.29500
O1427       O  0.97110590  0.47110360  0.96362274    -1.03900
O1428       O  0.50417659  0.04764798  0.11772756    -0.81100
O1429       O  0.49335926  0.04363538  0.88636227    -0.80600
O1430       O  0.57513486  0.49955405  0.06532064    -0.79100
O1431       O  0.92439383  0.49845744  0.07198300    -0.82400
O1432       O  0.92015628  0.99618521  0.94487033    -0.80300
O1433       O  0.57128461  0.99983872  0.93669878    -0.78900
O1434       O  0.53861447  0.07344015  0.00305216    -0.80500
O1435       O  0.95377649  0.07190459  0.00028110    -0.82400
O1436       O  0.57111295  0.04298869  0.99974966    -0.79100
O1437       O  0.92293230  0.03958980  0.00311581    -0.81800
O1438       O  0.54656165  0.50035448  0.11884541    -0.77500
O1439       O  0.54099030  0.99950194  0.88577743    -0.77600
O1440       O  0.94850511  0.99663196  0.89116565    -0.77200
O1441       O  0.95399730  0.50413468  0.12286034    -0.80700
O1442       O  0.49724979  0.07502491  0.06477619    -0.80100
O1443       O  0.49527472  0.07339848  0.93800231    -0.78400
Eu1444     Eu  0.49967866  0.50049758  0.09123048     2.39800
Eu1445     Eu  0.49562444  0.99793800  0.91805544     2.39600
Eu1446     Eu  0.54987015  0.99972269  0.00237297     2.38400
Eu1447     Eu  0.94556937  0.99711247  0.00674809     2.39900
Eu1448     Eu  0.49652220  0.05053435  0.00243863     2.39800
O1449       O  0.96982639  0.02369479  0.96225029    -0.92900
O1450       O  0.52422143  0.02625329  0.04473283    -0.91800
C1451       C  0.50222466  0.07121558  0.10205549     1.02300
C1452       C  0.49361509  0.06774794  0.90035046     1.01000
C1453       C  0.57025988  0.49963921  0.10344733     1.00400
C1454       C  0.92998072  0.50275725  0.10908562     1.02400
C1455       C  0.92485611  0.99604167  0.90682437     1.01300
C1456       C  0.56508042  0.00022633  0.89917959     1.00200
C1457       C  0.56291231  0.06697422  0.00061843     1.00300
C1458       C  0.92973494  0.06403412  0.00064300     1.02900
H1459       H  0.53328776  0.03638808  0.94313271     0.30200
O1460       O  0.52266560  0.02485470  0.95975360    -1.05000
H1461       H  0.96076819  0.03654647  0.06282372     0.32300
O1462       O  0.97181912  0.02480380  0.04727393    -1.07600
N1463       N  0.74719067  0.20765170  0.92297327    -0.36600
N1464       N  0.78732122  0.24823155  0.92600314    -0.57200
N1465       N  0.74761364  0.28960820  0.92252373    -0.36600
N1466       N  0.70748208  0.24912634  0.92121933    -0.57200
C1467       C  0.76820561  0.19268956  0.93256474     0.27000
C1468       C  0.72549818  0.19349029  0.93274453     0.27000
C1469       C  0.76867160  0.30374330  0.93488029     0.27000
C1470       C  0.72612911  0.30428364  0.93070638     0.27000
C1471       C  0.80314946  0.22696977  0.92387427     0.35600
C1472       C  0.80320569  0.26961904  0.92450681     0.35600
C1473       C  0.69164483  0.22778382  0.91886049     0.35600
C1474       C  0.69192973  0.27034424  0.91629469     0.35600
C1475       C  0.75971942  0.16814440  0.94609387    -0.21900
C1476       C  0.73280296  0.16876540  0.94667615    -0.21900
C1477       C  0.76056929  0.32805685  0.94957175    -0.21900
C1478       C  0.73371399  0.32844036  0.94679075    -0.21900
C1479       C  0.82919039  0.23493669  0.92050247    -0.23000
C1480       C  0.82920541  0.26197663  0.92071858    -0.23000
C1481       C  0.66596783  0.23539615  0.91158286    -0.23000
C1482       C  0.66614986  0.26243409  0.90988019    -0.23000
C1483       C  0.79485089  0.20074625  0.93085319    -0.18300
C1484       C  0.69920874  0.20203798  0.92945195    -0.18300
C1485       C  0.69979541  0.29646247  0.92453242    -0.18300
C1486       C  0.79509867  0.29559772  0.93283105    -0.18300
H1487       H  0.77163861  0.15169379  0.95575394     0.14600
H1488       H  0.72009058  0.15283960  0.95667077     0.14600
H1489       H  0.77271179  0.34384318  0.96144176     0.14600
H1490       H  0.72120213  0.34454665  0.95622336     0.14600
H1491       H  0.84650501  0.22262592  0.91977998     0.12900
H1492       H  0.84647933  0.27455558  0.92024655     0.12900
H1493       H  0.64873019  0.22283015  0.90969334     0.12900
H1494       H  0.64904446  0.27486591  0.90659944     0.12900
H1495       H  0.74760194  0.22587504  0.90872786     0.26100
H1496       H  0.74804082  0.27185568  0.90685733     0.26100
C1497       C  0.50484878  0.24965082  0.25741962    -0.02500
C1498       C  0.74960597  0.99805691  0.25556429    -0.02500
C1499       C  0.99920760  0.24943837  0.75320360    -0.02500
C1500       C  0.74598556  0.50082376  0.75552361    -0.02500
C1501       C  0.59432380  0.49794320  0.13005413     0.01300
C1502       C  0.61166055  0.47622584  0.12593893     0.04100
C1503       C  0.63640262  0.47586375  0.14547346    -0.11900
C1504       C  0.64500399  0.49767680  0.16846355     0.23400
C1505       C  0.62758158  0.01920815  0.17333869    -0.12500
C1506       C  0.60239218  0.01920298  0.15475492     0.04900
C1507       C  0.67175463  0.49735451  0.18879086     0.27300
C1508       C  0.67373125  0.99087129  0.22953678    -0.13200
C1509       C  0.69787316  0.99361344  0.25028778     0.05400
C1510       C  0.72273211  0.49823323  0.22960981    -0.09100
C1511       C  0.72037167  0.50141148  0.18629563     0.06200
C1512       C  0.69512375  0.50315192  0.16759936    -0.13500
Br1513     Br  0.63859906  0.04923449  0.20472780    -0.05600
Br1514     Br  0.60157751  0.44656352  0.09321542     0.00000
Br1515     Br  0.69395290  0.99574440  0.30793435     0.00500
Br1516     Br  0.69201235  0.51386006  0.11204668    -0.03900
Br1517     Br  0.57944488  0.04900840  0.16176191     0.00600
Br1518     Br  0.65861643  0.44517732  0.14113987    -0.03200
Br1519     Br  0.64251988  0.97846602  0.25732311    -0.04100
Br1520     Br  0.74944283  0.50046296  0.14850062    -0.00100
C1521       C  0.77698640  0.49790185  0.23004229     0.01300
C1522       C  0.79541584  0.47579065  0.22768798     0.04100
C1523       C  0.81847581  0.47725398  0.20389858    -0.11900
C1524       C  0.82931439  0.50174897  0.19404581     0.23400
C1525       C  0.81418263  0.02436395  0.20062132    -0.12500
C1526       C  0.78759085  0.02224607  0.21319767     0.04900
C1527       C  0.85595939  0.50365390  0.17466289     0.27300
C1528       C  0.87945894  0.49910112  0.19634339    -0.13200
C1529       C  0.90429771  0.49958270  0.17644079     0.05400
C1530       C  0.90589443  0.50664118  0.13528272    -0.09100
C1531       C  0.88237849  0.01537492  0.11647781     0.06200
C1532       C  0.85772792  0.01116758  0.13423748    -0.13500
Br1533     Br  0.83045464  0.05862371  0.19221180    -0.05600
Br1534     Br  0.79876359  0.44641416  0.26445200     0.00000
Br1535     Br  0.93560918  0.49169234  0.20631363     0.00500
Br1536     Br  0.82626969  0.01514727  0.10229172    -0.03900
Br1537     Br  0.76739954  0.05375889  0.20331927     0.00600
Br1538     Br  0.83689462  0.44552599  0.18731768    -0.03200
Br1539     Br  0.87744532  0.49259519  0.25334696    -0.04100
Br1540     Br  0.88325531  0.03757030  0.06963957    -0.00100
C1541       C  0.50404400  0.40708752  0.13717078     0.01300
C1542       C  0.02426910  0.38855595  0.12977775     0.04100
C1543       C  0.02416766  0.36346264  0.14840641    -0.11900
C1544       C  0.50442851  0.35654819  0.17648685     0.23400
C1545       C  0.48488550  0.37555906  0.18569634    -0.12500
C1546       C  0.48451596  0.40046003  0.16580445     0.04900
C1547       C  0.50472265  0.32931509  0.19561876     0.27300
C1548       C  0.98824146  0.30889659  0.18175763    -0.13200
C1549       C  0.98965335  0.28282517  0.19816884     0.05400
C1550       C  0.50820036  0.27598054  0.22950583    -0.09100
C1551       C  0.52790932  0.29621701  0.23619600     0.06200
C1552       C  0.52427599  0.32272357  0.22342704    -0.13500
Br1553     Br  0.45816113  0.36748561  0.22492211    -0.05600
Br1554     Br  0.05277084  0.39761085  0.09416009     0.00000
Br1555     Br  0.96760329  0.25741809  0.17150370     0.00500
Br1556     Br  0.54614404  0.35071336  0.24499087    -0.03900
Br1557     Br  0.45631172  0.42479322  0.17596868     0.00600
Br1558     Br  0.05074805  0.33796264  0.13391378    -0.03200
Br1559     Br  0.96329441  0.31728092  0.13983598    -0.04100
Br1560     Br  0.56407708  0.28907809  0.24747529    -0.00100
C1561       C  0.50549864  0.09655359  0.12647208     0.01300
C1562       C  0.00694084  0.12134560  0.10585619     0.04100
C1563       C  0.00292870  0.14528657  0.12628022    -0.11900
C1564       C  0.50420679  0.14624156  0.16839168     0.23400
C1565       C  0.50713690  0.12218644  0.18968253    -0.12500
C1566       C  0.50641603  0.09743318  0.16919574     0.04900
C1567       C  0.50332832  0.17275648  0.18924037     0.27300
C1568       C  0.52342635  0.19151695  0.18294627    -0.13200
C1569       C  0.52176895  0.21735454  0.19954501     0.05400
C1570       C  0.50141687  0.22432615  0.22789616    -0.09100
C1571       C  0.97903646  0.20626035  0.22774682     0.06200
C1572       C  0.98082052  0.18061206  0.21041992    -0.13500
Br1573     Br  0.51261044  0.12324970  0.24694239    -0.05600
Br1574     Br  0.01986488  0.12462732  0.05131788     0.00000
Br1575     Br  0.54866109  0.24171881  0.18221132     0.00500
Br1576     Br  0.95136944  0.15609999  0.21297844    -0.03900
Br1577     Br  0.50814862  0.06544014  0.20051182     0.00600
Br1578     Br  0.99530736  0.17695370  0.09585923    -0.03200
Br1579     Br  0.55515331  0.18038324  0.15543845    -0.04100
Br1580     Br  0.94290463  0.21656305  0.23761337    -0.00100
C1581       C  0.67899651  0.31569590  0.93424392     0.01300
C1582       C  0.66758324  0.33098484  0.90368192     0.04100
C1583       C  0.64807065  0.34937791  0.91353299    -0.11900
C1584       C  0.64065519  0.35282989  0.95402570     0.23400
C1585       C  0.65188593  0.33737479  0.98452105    -0.12500
C1586       C  0.67083836  0.31854035  0.97455509     0.04900
C1587       C  0.62124050  0.37298740  0.96489936     0.27300
C1588       C  0.62926165  0.39934201  0.96908236    -0.13200
C1589       C  0.61103052  0.41878576  0.98005612     0.05400
C1590       C  0.58420719  0.41164872  0.98766907    -0.09100
C1591       C  0.57667498  0.38434793  0.98429567     0.06200
C1592       C  0.59520981  0.36543646  0.97241127    -0.13500
Br1593     Br  0.64128415  0.34218926  0.03989808    -0.05600
Br1594     Br  0.67878124  0.32666918  0.84864893     0.00000
Br1595     Br  0.62452495  0.45472042  0.98323459     0.00500
Br1596     Br  0.58520584  0.32866544  0.96572683    -0.03900
Br1597     Br  0.68582301  0.29674195  0.01612744     0.00600
Br1598     Br  0.63135642  0.36979752  0.87190416    -0.03200
Br1599     Br  0.66575929  0.40851366  0.95950269    -0.04100
Br1600     Br  0.54131845  0.37094802  0.99406261    -0.00100
C1601       C  0.91301780  0.40754542  0.00268745     0.01300
C1602       C  0.91962256  0.38319764  0.98361938     0.04100
C1603       C  0.89974916  0.36494393  0.97396507    -0.11900
C1604       C  0.87332143  0.37135765  0.98078165     0.23400
C1605       C  0.86661392  0.39492101  0.00048792    -0.12500
C1606       C  0.88645353  0.41223946  0.01355542     0.04900
C1607       C  0.85266272  0.35258784  0.96854052     0.27300
C1608       C  0.84446761  0.35156270  0.92812005    -0.13200
C1609       C  0.82575866  0.33269158  0.91624672     0.05400
C1610       C  0.81545588  0.31491496  0.94475705    -0.09100
C1611       C  0.82387540  0.31573391  0.98503979     0.06200
C1612       C  0.84234422  0.33474627  0.99701113    -0.13500
Br1613     Br  0.83006747  0.40380283  0.00814228    -0.05600
Br1614     Br  0.95520385  0.37404817  0.96836299     0.00000
Br1615     Br  0.81451435  0.33061923  0.86098677     0.00500
Br1616     Br  0.85382029  0.33624453  0.05224580    -0.03900
Br1617     Br  0.87673677  0.44152723  0.04788338     0.00600
Br1618     Br  0.90841009  0.33097267  0.95068254    -0.03200
Br1619     Br  0.85912217  0.37576269  0.88912450    -0.04100
Br1620     Br  0.81028106  0.29057686  0.02359407    -0.00100
C1621       C  0.81514574  0.18151094  0.94329608     0.01300
C1622       C  0.83121709  0.16922665  0.91434155     0.04100
C1623       C  0.85108057  0.15192346  0.92670402    -0.11900
C1624       C  0.85362387  0.14549774  0.96776301     0.23400
C1625       C  0.83714738  0.15730354  0.99662009    -0.12500
C1626       C  0.81854720  0.17601022  0.98454987     0.04900
C1627       C  0.87210506  0.12462280  0.97996092     0.27300
C1628       C  0.86564181  0.09814830  0.97219535    -0.13200
C1629       C  0.88442591  0.07830649  0.97786713     0.05400
C1630       C  0.90876036  0.08443019  0.99679741    -0.09100
C1631       C  0.91356158  0.11094573  0.00926566     0.06200
C1632       C  0.89612192  0.13110836  0.99817058    -0.13500
Br1633     Br  0.83923588  0.14686092  0.05232497    -0.05600
Br1634     Br  0.82557843  0.17573593  0.85789029     0.00000
Br1635     Br  0.87662309  0.04391971  0.95543827     0.00500
Br1636     Br  0.90559075  0.16778665  0.00589235    -0.03900
Br1637     Br  0.79744331  0.19386992  0.02450182     0.00600
Br1638     Br  0.87466811  0.13669809  0.88751378    -0.03200
Br1639     Br  0.83083344  0.08944595  0.95303128    -0.04100
Br1640     Br  0.94361471  0.12053241  0.04173518    -0.00100
C1641       C  0.67830787  0.18347711  0.94221861     0.01300
C1642       C  0.66784595  0.18530371  0.98147244     0.04100
C1643       C  0.64907251  0.16682231  0.99450908    -0.11900
C1644       C  0.64128181  0.14631033  0.96858959     0.23400
C1645       C  0.65147946  0.14469531  0.92920874    -0.12500
C1646       C  0.66978906  0.16351974  0.91585729     0.04900
C1647       C  0.62089689  0.12744155  0.98143720     0.27300
C1648       C  0.62765692  0.10465693  0.00305541    -0.13200
C1649       C  0.60828650  0.08567566  0.01216112     0.05400
C1650       C  0.58249697  0.08858413  0.99666255    -0.09100
C1651       C  0.57605809  0.11180408  0.97483638     0.06200
C1652       C  0.59492036  0.13169657  0.96943152    -0.13500
Br1653     Br  0.64005536  0.11688926  0.89348116    -0.05600
Br1654     Br  0.67929548  0.21303339  0.01736666     0.00000
Br1655     Br  0.61764917  0.05623688  0.04625437     0.00500
Br1656     Br  0.58560810  0.16481167  0.94439548    -0.03900
Br1657     Br  0.68294245  0.16244364  0.86140390     0.00600
Br1658     Br  0.63345813  0.16979623  0.04731141    -0.03200
Br1659     Br  0.66369559  0.09933648  0.01904421    -0.04100
Br1660     Br  0.54293873  0.11601721  0.94721623    -0.00100
C1661       C  0.77116598  0.99708521  0.78495727     0.01300
C1662       C  0.77742593  0.01555230  0.81676516     0.04100
C1663       C  0.80257230  0.01563183  0.83604542    -0.11900
C1664       C  0.82304141  0.99907901  0.82265322     0.23400
C1665       C  0.81692988  0.48020150  0.79320008    -0.12500
C1666       C  0.79081144  0.47674484  0.77956028     0.04900
C1667       C  0.84975013  0.99851137  0.84308401     0.27300
C1668       C  0.86995024  0.01710119  0.83418862    -0.13200
C1669       C  0.89492284  0.01567357  0.85323809     0.05400
C1670       C  0.90051153  0.99525721  0.88084628    -0.09100
C1671       C  0.88034545  0.97650708  0.88916735     0.06200
C1672       C  0.85529280  0.97829036  0.87097759    -0.13500
Br1673     Br  0.84455969  0.45791438  0.77226605    -0.05600
Br1674     Br  0.75308404  0.04197341  0.83491433     0.00000
Br1675     Br  0.92070206  0.04314760  0.84418893     0.00500
Br1676     Br  0.82801245  0.45321115  0.88532008    -0.03900
Br1677     Br  0.78284633  0.43980663  0.77140876     0.00600
Br1678     Br  0.80978319  0.03934587  0.88005943    -0.03200
Br1679     Br  0.86358117  0.04510745  0.79661322    -0.04100
Br1680     Br  0.88677190  0.94785792  0.92573438    -0.00100
C1681       C  0.58834336  0.00236702  0.87127368     0.01300
C1682       C  0.60836401  0.02089553  0.88059287     0.04100
C1683       C  0.63368406  0.01886917  0.86362982    -0.11900
C1684       C  0.63917450  0.99951759  0.83436672     0.23400
C1685       C  0.61858762  0.48229278  0.82224782    -0.12500
C1686       C  0.59332720  0.48371551  0.84063475     0.04900
C1687       C  0.66614592  0.99924197  0.81512931     0.27300
C1688       C  0.67295317  0.01893098  0.78734489    -0.13200
C1689       C  0.69952280  0.02332086  0.77618780     0.05400
C1690       C  0.71946176  0.00345494  0.78272964    -0.09100
C1691       C  0.71217177  0.48403756  0.81281793     0.06200
C1692       C  0.68632184  0.48296491  0.82973589    -0.13500
Br1693     Br  0.62484089  0.45643484  0.78099421    -0.05600
Br1694     Br  0.60061721  0.05064090  0.91457516     0.00000
Br1695     Br  0.70675212  0.06049598  0.76972743     0.00500
Br1696     Br  0.67793222  0.45905093  0.87332461    -0.03900
Br1697     Br  0.56554684  0.46036406  0.82347704     0.00600
Br1698     Br  0.66133159  0.04240705  0.88146747    -0.03200
Br1699     Br  0.64543677  0.04108149  0.76589893    -0.04100
Br1700     Br  0.73618887  0.45835022  0.83353459    -0.00100
C1701       C  0.49181793  0.09159333  0.87308405     0.01300
C1702       C  0.47699786  0.11370027  0.88620412     0.04100
C1703       C  0.48026026  0.13878424  0.86861210    -0.11900
C1704       C  0.49540502  0.14176702  0.83353732     0.23400
C1705       C  0.00803251  0.11925277  0.81722574    -0.12500
C1706       C  0.00727269  0.09460496  0.83785807     0.04900
C1707       C  0.49646068  0.16834198  0.81307783     0.27300
C1708       C  0.97487870  0.17721570  0.79119763    -0.13200
C1709       C  0.97567770  0.20168212  0.77030092     0.05400
C1710       C  0.99720784  0.22083985  0.77581276    -0.09100
C1711       C  0.51925833  0.21026639  0.79828700     0.06200
C1712       C  0.51851768  0.18478373  0.81641326    -0.13500
Br1713     Br  0.02624154  0.12232708  0.76652141    -0.05600
Br1714     Br  0.44995200  0.10963787  0.92587451     0.00000
Br1715     Br  0.94988349  0.20104269  0.72725241     0.00500
Br1716     Br  0.54763647  0.17200869  0.84817377    -0.03900
Br1717     Br  0.02846127  0.06573583  0.81880900     0.00600
Br1718     Br  0.46408055  0.16942950  0.89300334    -0.03200
Br1719     Br  0.94424857  0.15394377  0.78824186    -0.04100
Br1720     Br  0.55177797  0.22918226  0.80704937    -0.00100
C1721       C  0.49953433  0.40424173  0.87869271     0.01300
C1722       C  0.97601530  0.39224396  0.86551411     0.04100
C1723       C  0.97619039  0.36633493  0.84946721    -0.11900
C1724       C  0.50004259  0.35234949  0.84518256     0.23400
C1725       C  0.52371736  0.36478002  0.85704621    -0.12500
C1726       C  0.52338183  0.39037877  0.87412017     0.04900
C1727       C  0.50033432  0.32604209  0.82387743     0.27300
C1728       C  0.00176044  0.30200782  0.84490985    -0.13200
C1729       C  0.00046178  0.27714450  0.82453836     0.05400
C1730       C  0.99953221  0.27578748  0.78079862    -0.09100
C1731       C  0.49838505  0.30136071  0.76063883     0.06200
C1732       C  0.49878908  0.32553891  0.78200733    -0.13500
Br1733     Br  0.55672486  0.34684026  0.84979917    -0.05600
Br1734     Br  0.94343810  0.41128975  0.87024171     0.00000
Br1735     Br  0.99756778  0.24724498  0.86077532     0.00500
Br1736     Br  0.49966299  0.35916188  0.75374804    -0.03900
Br1737     Br  0.55575107  0.40660530  0.89133674     0.00600
Br1738     Br  0.94362598  0.34971456  0.83362232    -0.03200
Br1739     Br  0.00608061  0.30383820  0.90273403    -0.04100
Br1740     Br  0.50012688  0.30582483  0.70280548    -0.00100
C1741       C  0.84208186  0.26680694  0.63706876     0.01300
C1742       C  0.86151902  0.28644692  0.62920081     0.04100
C1743       C  0.88681572  0.28509026  0.64689310    -0.11900
C1744       C  0.89348925  0.26391268  0.67244266     0.23400
C1745       C  0.87340034  0.24553094  0.68296663    -0.12500
C1746       C  0.84789012  0.24717596  0.66584479     0.04900
C1747       C  0.92090337  0.26203680  0.69033406     0.27300
C1748       C  0.94301415  0.25434209  0.66746024    -0.13200
C1749       C  0.96875795  0.25303620  0.68484361     0.05400
C1750       C  0.97226203  0.25416465  0.72820962    -0.09100
C1751       C  0.94836764  0.26060397  0.75029725     0.06200
C1752       C  0.92472274  0.26764729  0.73096812    -0.13500
Br1753     Br  0.88076761  0.21752023  0.72044485    -0.05600
Br1754     Br  0.85328761  0.31594013  0.59470992     0.00000
Br1755     Br  0.99692629  0.25041456  0.64598984    -0.00500
Br1756     Br  0.89664673  0.28466576  0.76066310    -0.03900
Br1757     Br  0.82113949  0.22193635  0.68114283     0.00600
Br1758     Br  0.91238816  0.31264797  0.63682209    -0.03200
Br1759     Br  0.93734052  0.24408723  0.61214446    -0.04100
Br1760     Br  0.94379502  0.25516781  0.80721001    -0.00100
C1761       C  0.65338075  0.24854664  0.62397718     0.01300
C1762       C  0.62891325  0.25312111  0.60359141     0.04100
C1763       C  0.60461116  0.25131769  0.62396632    -0.11900
C1764       C  0.60368023  0.24574131  0.66512716     0.23400
C1765       C  0.62748983  0.24266219  0.68632283    -0.12500
C1766       C  0.65215551  0.24455990  0.66625844     0.04900
C1767       C  0.57762117  0.24622835  0.68656717     0.27300
C1768       C  0.56952828  0.26932166  0.70546689    -0.13200
C1769       C  0.54763817  0.26901237  0.73151427     0.05400
C1770       C  0.52698434  0.24875129  0.72824214    -0.09100
C1771       C  0.53539043  0.22565506  0.70545626     0.06200
C1772       C  0.56085099  0.22418627  0.68743506    -0.13500
Br1773     Br  0.62600672  0.23563051  0.74328162    -0.05600
Br1774     Br  0.62673454  0.26430301  0.54818168     0.00000
Br1775     Br  0.55572725  0.29140616  0.77762486     0.00500
Br1776     Br  0.57330360  0.19198933  0.66247243    -0.03900
Br1777     Br  0.68368948  0.24284357  0.69807924     0.00600
Br1778     Br  0.57186687  0.25730863  0.59576407    -0.03200
Br1779     Br  0.59026283  0.30130280  0.69797792    -0.04100
Br1780     Br  0.51384979  0.19465221  0.69652801    -0.00100
C1781       C  0.75039892  0.02724185  0.72840080     0.01300
C1782       C  0.73306166  0.03490405  0.69622049     0.04100
C1783       C  0.73236737  0.06148440  0.68179081    -0.11900
C1784       C  0.74958743  0.08098243  0.69685638     0.23400
C1785       C  0.76862804  0.07321514  0.72460611    -0.12500
C1786       C  0.77099855  0.04639717  0.73600681     0.04900
C1787       C  0.75219568  0.10750442  0.67629593     0.27300
C1788       C  0.76628639  0.10893814  0.63998628    -0.13200
C1789       C  0.76936327  0.13318729  0.61944328     0.05400
C1790       C  0.75802234  0.15720616  0.63478750    -0.09100
C1791       C  0.74531645  0.15576176  0.67291040     0.06200
C1792       C  0.74235290  0.13112324  0.69322141    -0.13500
Br1793     Br  0.79373668  0.09926171  0.74365808    -0.05600
Br1794     Br  0.71192867  0.01007378  0.66677676     0.00000
Br1795     Br  0.79004484  0.13161676  0.57028767     0.00500
Br1796     Br  0.72456958  0.12955750  0.74441801    -0.03900
Br1797     Br  0.80733100  0.03681188  0.74188119     0.00600
Br1798     Br  0.70640271  0.07226489  0.64299488    -0.03200
Br1799     Br  0.78177542  0.07689651  0.61843612    -0.04100
Br1800     Br  0.73136754  0.18703202  0.69800609    -0.00100
C1801       C  0.74278866  0.47528935  0.72650491     0.01300
C1802       C  0.72109499  0.45684020  0.72964317     0.04100
C1803       C  0.72349131  0.43027429  0.71720691    -0.11900
C1804       C  0.74390937  0.42264275  0.69151898     0.23400
C1805       C  0.76256579  0.44189987  0.68001254    -0.12500
C1806       C  0.76215449  0.46785641  0.69686205     0.04900
C1807       C  0.74251358  0.39630232  0.67034037     0.27300
C1808       C  0.75215601  0.37284100  0.68781777    -0.13200
C1809       C  0.75115485  0.34844813  0.66665286     0.05400
C1810       C  0.74018964  0.34705156  0.62741817    -0.09100
C1811       C  0.72914285  0.37075875  0.61113573     0.06200
C1812       C  0.73050808  0.39489366  0.63240345    -0.13500
Br1813     Br  0.79019341  0.43145097  0.64346237    -0.05600
Br1814     Br  0.68482922  0.46767738  0.73025762     0.00000
Br1815     Br  0.76620581  0.31762109  0.69172320     0.00500
Br1816     Br  0.71578631  0.42672927  0.60943830    -0.03900
Br1817     Br  0.78844594  0.49185584  0.67701468     0.00600
Br1818     Br  0.69701028  0.40455361  0.73253605    -0.03200
Br1819     Br  0.76699254  0.37413631  0.74096489    -0.04100
Br1820     Br  0.71159402  0.37177063  0.55946795    -0.00100
C1821       C  0.85247549  0.17989126  0.51635885     0.01300
C1822       C  0.87015782  0.17667650  0.48407858     0.04100
C1823       C  0.89165980  0.15957680  0.48816427    -0.11900
C1824       C  0.89339177  0.14313703  0.52227815     0.23400
C1825       C  0.87521020  0.14596193  0.55405026    -0.12500
C1826       C  0.85627342  0.16588925  0.55232772     0.04900
C1827       C  0.91335263  0.12205560  0.52412464     0.27300
C1828       C  0.91159497  0.10026490  0.49782411    -0.13200
C1829       C  0.93015877  0.08001437  0.50019581     0.05400
C1830       C  0.94777565  0.07926508  0.53289053    -0.09100
C1831       C  0.94887781  0.10058510  0.56015137     0.06200
C1832       C  0.93308653  0.12284005  0.55379146    -0.13500
Br1833     Br  0.87476688  0.12141782  0.59852745    -0.05600
Br1834     Br  0.86393291  0.19402170  0.43350944     0.00000
Br1835     Br  0.93167713  0.05374769  0.45799470     0.00500
Br1836     Br  0.93839241  0.15429346  0.58572348    -0.03900
Br1837     Br  0.83701605  0.17541236  0.60008757     0.00600
Br1838     Br  0.91844042  0.15826258  0.44699725    -0.03200
Br1839     Br  0.88283882  0.09705577  0.46027396    -0.04100
Br1840     Br  0.97055206  0.09867207  0.60756898    -0.00100
C1841       C  0.58232852  0.05143644  0.54352320     0.01300
C1842       C  0.59381283  0.06021839  0.57958897     0.04100
C1843       C  0.61584983  0.07696145  0.57820871    -0.11900
C1844       C  0.62563452  0.08561518  0.54078999     0.23400
C1845       C  0.61501556  0.07571313  0.50475673    -0.12500
C1846       C  0.59342155  0.05845043  0.50611377     0.04900
C1847       C  0.64447924  0.10777143  0.53902231     0.27300
C1848       C  0.63488536  0.13365996  0.53975086    -0.13200
C1849       C  0.65212239  0.15514546  0.53473348     0.05400
C1850       C  0.67950608  0.15079164  0.52768637    -0.09100
C1851       C  0.68912535  0.12433561  0.53086615     0.06200
C1852       C  0.67145546  0.10305066  0.53560306    -0.13500
Br1853     Br  0.62931344  0.08691471  0.45364426    -0.05600
Br1854     Br  0.57833380  0.05056742  0.63057493     0.00000
Br1855     Br  0.63685745  0.18995237  0.54086020     0.00500
Br1856     Br  0.68374407  0.06694171  0.53679220    -0.03900
Br1857     Br  0.57780069  0.04588932  0.45676668     0.00600
Br1858     Br  0.63205790  0.08896248  0.62729204    -0.03200
Br1859     Br  0.59754736  0.13943681  0.54726437    -0.04100
Br1860     Br  0.72606334  0.11560499  0.53070309    -0.00100
C1861       C  0.65180091  0.32142074  0.50186503     0.01300
C1862       C  0.64660307  0.33503371  0.53794843     0.04100
C1863       C  0.62673731  0.35411353  0.53930000    -0.11900
C1864       C  0.61064978  0.35806427  0.50549610     0.23400
C1865       C  0.61394047  0.34234807  0.47088991    -0.12500
C1866       C  0.63445729  0.32386580  0.46915340     0.04900
C1867       C  0.59081497  0.37926188  0.50599980     0.27300
C1868       C  0.56728423  0.37609068  0.52800000    -0.13200
C1869       C  0.55005377  0.39753344  0.53223659     0.05400
C1870       C  0.55526318  0.42131410  0.51143943    -0.09100
C1871       C  0.57732176  0.42328082  0.48585081     0.06200
C1872       C  0.59593073  0.40299781  0.48526217    -0.13500
Br1873     Br  0.59078221  0.34697572  0.42563483    -0.05600
Br1874     Br  0.66462170  0.32529403  0.58667989     0.00000
Br1875     Br  0.52023811  0.39468513  0.56810244     0.00500
Br1876     Br  0.62921795  0.40849878  0.45844349    -0.03900
Br1877     Br  0.63842225  0.30170173  0.42250926     0.00600
Br1878     Br  0.62237870  0.37564561  0.58678091    -0.03200
Br1879     Br  0.55911880  0.34259568  0.55299820    -0.04100
Br1880     Br  0.58192417  0.45372239  0.45145766    -0.00100
C1881       C  0.82350655  0.35170576  0.49514076     0.01300
C1882       C  0.84425209  0.35150952  0.46690317     0.04100
C1883       C  0.86316452  0.37171323  0.46718799    -0.11900
C1884       C  0.86001799  0.39338391  0.49316235     0.23400
C1885       C  0.83776500  0.39513056  0.51824144    -0.12500
C1886       C  0.81989607  0.37392937  0.52022502     0.04900
C1887       C  0.88162088  0.41254897  0.49793380     0.27300
C1888       C  0.89853781  0.40992049  0.53110540    -0.13200
C1889       C  0.91909044  0.42797036  0.53651474     0.05400
C1890       C  0.92347317  0.44789114  0.50781538    -0.09100
C1891       C  0.90687999  0.45041312  0.47428554     0.06200
C1892       C  0.88565922  0.43285257  0.46954510    -0.13500
Br1893     Br  0.83282255  0.42607846  0.55134151    -0.05600
Br1894     Br  0.84607223  0.32447260  0.42623700     0.00000
Br1895     Br  0.94144131  0.42545300  0.58319317     0.00500
Br1896     Br  0.86261172  0.43609165  0.42389295    -0.03900
Br1897     Br  0.79195920  0.37475880  0.55951837     0.00600
Br1898     Br  0.89426431  0.36883117  0.43403236    -0.03200
Br1899     Br  0.89427490  0.38087010  0.56823468    -0.04100
Br1900     Br  0.91388118  0.47729615  0.43450130    -0.00100
C1901       C  0.66237557  0.23853601  0.37104777     0.01300
C1902       C  0.64230042  0.21971259  0.37906262     0.04100
C1903       C  0.61672381  0.22286331  0.36337110    -0.11900
C1904       C  0.61082285  0.24416998  0.33753966     0.23400
C1905       C  0.63135055  0.26206152  0.32734615    -0.12500
C1906       C  0.65694037  0.25918545  0.34376514     0.04900
C1907       C  0.58362342  0.24590615  0.31917763     0.27300
C1908       C  0.57649223  0.22805175  0.28892374    -0.13200
C1909       C  0.54989233  0.22471946  0.27796716     0.05400
C1910       C  0.53050528  0.24489503  0.28599065    -0.09100
C1911       C  0.53743767  0.26138471  0.31996630     0.06200
C1912       C  0.56352370  0.26147455  0.33622699    -0.13500
Br1913     Br  0.62447086  0.29141766  0.29245129    -0.05600
Br1914     Br  0.65004495  0.18889513  0.41117506     0.00000
Br1915     Br  0.54136926  0.18754423  0.27365238     0.00500
Br1916     Br  0.57237101  0.28362447  0.38139806    -0.03900
Br1917     Br  0.68411525  0.28450395  0.33045641     0.00600
Br1918     Br  0.58927351  0.19828944  0.37865735    -0.03200
Br1919     Br  0.60308333  0.20562987  0.26525456    -0.04100
Br1920     Br  0.51218280  0.28194391  0.34938558    -0.00100
C1921       C  0.85047442  0.25645074  0.38358840     0.01300
C1922       C  0.85184479  0.25220359  0.34126500     0.04100
C1923       C  0.87653564  0.25057490  0.32119419    -0.11900
C1924       C  0.90032219  0.25502653  0.34199433     0.23400
C1925       C  0.89919394  0.26158128  0.38296246    -0.12500
C1926       C  0.87510330  0.26100173  0.40420814     0.04900
C1927       C  0.92680788  0.25368378  0.32138897     0.27300
C1928       C  0.94476992  0.23352808  0.33084414    -0.13200
C1929       C  0.97055142  0.23324139  0.31386569     0.05400
C1930       C  0.97911698  0.25316309  0.28563270    -0.09100
C1931       C  0.96205251  0.27594810  0.28409376     0.06200
C1932       C  0.93569096  0.27481032  0.29773838    -0.13500
Br1933     Br  0.93139103  0.27213605  0.40995702    -0.05600
Br1934     Br  0.82045364  0.24910898  0.30914579     0.00000
Br1935     Br  0.99238904  0.20453444  0.33039036     0.00500
Br1936     Br  0.91203273  0.30386390  0.28705281    -0.03900
Br1937     Br  0.87858216  0.26571691  0.46221073     0.00600
Br1938     Br  0.87785840  0.24238396  0.26459108    -0.03200
Br1939     Br  0.93278146  0.20487360  0.36481294    -0.04100
Br1940     Br  0.97485267  0.31183210  0.28213292    -0.00100
C1941       C  0.74661488  0.47033372  0.27958944     0.01300
C1942       C  0.74953142  0.46621063  0.32264285     0.04100
C1943       C  0.75096509  0.44013998  0.33881121    -0.11900
C1944       C  0.74349246  0.41797899  0.31598905     0.23400
C1945       C  0.73551559  0.42184871  0.27640166    -0.12500
C1946       C  0.73960371  0.44647849  0.25726973     0.04900
C1947       C  0.74239442  0.39071234  0.33410793     0.27300
C1948       C  0.76266080  0.37210936  0.32734163    -0.13200
C1949       C  0.76178816  0.34688119  0.34570278     0.05400
C1950       C  0.74044091  0.33971359  0.37062142    -0.09100
C1951       C  0.71947920  0.35786169  0.37544613     0.06200
C1952       C  0.72046747  0.38308087  0.35736387    -0.13500
Br1953     Br  0.71934651  0.39249030  0.24808750    -0.05600
Br1954     Br  0.74774616  0.49331266  0.36377461     0.00000
Br1955     Br  0.79118234  0.32317916  0.33986753     0.00500
Br1956     Br  0.69189868  0.40763070  0.36500269    -0.03900
Br1957     Br  0.73992462  0.44363484  0.19934152     0.00600
Br1958     Br  0.76315841  0.43418539  0.39309771    -0.03200
Br1959     Br  0.79229096  0.38123722  0.29410237    -0.04100
Br1960     Br  0.68939185  0.34870991  0.40791402    -0.00100
C1961       C  0.76011118  0.15284487  0.38182800     0.01300
C1962       C  0.74377877  0.13187136  0.39529303     0.04100
C1963       C  0.74687721  0.10601084  0.38045415    -0.11900
C1964       C  0.76331946  0.10115808  0.34716041     0.23400
C1965       C  0.77844643  0.12242045  0.33137318    -0.12500
C1966       C  0.77757123  0.14789425  0.34956982     0.04900
C1967       C  0.76022664  0.07532986  0.32477091     0.27300
C1968       C  0.77870926  0.05499654  0.32727852    -0.13200
C1969       C  0.77506477  0.03062863  0.30634494     0.05400
C1970       C  0.75163975  0.02498980  0.28267862    -0.09100
C1971       C  0.73345619  0.04742020  0.27998800     0.06200
C1972       C  0.73768789  0.07129746  0.30166590    -0.13500
Br1973     Br  0.79994330  0.11670933  0.28440511    -0.05600
Br1974     Br  0.71445766  0.13911814  0.43025712     0.00000
Br1975     Br  0.80369901  0.00587354  0.31256090     0.00500
Br1976     Br  0.71306904  0.10075430  0.29815631    -0.03900
Br1977     Br  0.80025761  0.17579857  0.33051838     0.00600
Br1978     Br  0.72762239  0.07710248  0.40477332    -0.03200
Br1979     Br  0.80914534  0.06093785  0.36096723    -0.04100
Br1980     Br  0.70547927  0.05248731  0.24099033    -0.00100
O1981       O  0.75849899  0.70113148  0.39022031    -0.80100
O1982       O  0.75386026  0.70587437  0.62222593    -0.81700
O1983       O  0.80667467  0.68502074  0.51112384    -0.78700
O1984       O  0.72236860  0.67026240  0.51758424    -0.77100
O1985       O  0.68678013  0.69591714  0.50894718    -0.78900
O1986       O  0.83285770  0.72183732  0.51103044    -0.79800
O1987       O  0.75953622  0.67688027  0.57074543    -0.81200
O1988       O  0.76283386  0.67367979  0.44457456    -0.81400
Eu1989     Eu  0.76058968  0.69893731  0.50682249     2.39200
O1990       O  0.72980201  0.72159276  0.54620244    -0.89000
O1991       O  0.78342617  0.72808570  0.46459381    -0.92600
C1992       C  0.76091128  0.67778068  0.40649186     1.02100
C1993       C  0.75725015  0.68187455  0.60826023     1.02000
C1994       C  0.82924157  0.69669185  0.51224496     1.01900
C1995       C  0.69737762  0.67364672  0.51746395     0.99800
H1996       H  0.79315885  0.72076249  0.56689282     0.29500
O1997       O  0.78087616  0.72971091  0.54986216    -1.01300
H1998       H  0.72193709  0.70524263  0.44595692     0.29500
O1999       O  0.73139610  0.71851373  0.46103231    -1.03900
O2000       O  0.74361230  0.79878411  0.61741948    -0.81100
O2001       O  0.74782845  0.79305329  0.38581665    -0.80600
O2002       O  0.82518671  0.76468352  0.57153523    -0.79100
O2003       O  0.67590240  0.74184699  0.56259195    -0.82400
O2004       O  0.67954188  0.73837952  0.43622887    -0.80300
O2005       O  0.82700487  0.75886480  0.44486014    -0.78900
O2006       O  0.78147284  0.83175090  0.49746702    -0.80500
O2007       O  0.69796538  0.81665034  0.50150062    -0.82400
O2008       O  0.81767476  0.80567640  0.50316383    -0.79100
O2009       O  0.67225426  0.77983204  0.49602451    -0.81800
O2010       O  0.79497386  0.75991666  0.62230225    -0.77500
O2011       O  0.80156903  0.75184986  0.39035124    -0.77600
O2012       O  0.70960221  0.74305617  0.38529906    -0.77200
O2013       O  0.70213518  0.75065599  0.61625760    -0.80700
O2014       O  0.74305873  0.82649064  0.56356986    -0.80100
O2015       O  0.74034009  0.82320132  0.43606212    -0.78400
Eu2016     Eu  0.74972275  0.75219939  0.59074806     2.39800
Eu2017     Eu  0.75458963  0.74798213  0.41751936     2.39600
Eu2018     Eu  0.80313335  0.75943982  0.50734130     2.38400
Eu2019     Eu  0.70122505  0.74171558  0.50085349     2.39900
Eu2020     Eu  0.74386835  0.80192621  0.50085281     2.39800
O2021       O  0.72380440  0.77086970  0.45835020    -0.92900
O2022       O  0.77238872  0.78183302  0.54698241    -0.91800
C2023       C  0.74228746  0.82233521  0.60161534     1.02300
C2024       C  0.74274112  0.81684921  0.39884386     1.01000
C2025       C  0.81893996  0.76386314  0.60902100     1.00400
C2026       C  0.67900318  0.74689296  0.60004376     1.02400
C2027       C  0.68565333  0.73988813  0.39875569     1.01300
C2028       C  0.82448581  0.75574247  0.40705439     1.00200
C2029       C  0.80643397  0.82828205  0.49906060     1.00300
C2030       C  0.67549201  0.80493148  0.49902213     1.02900
H2031       H  0.78466866  0.79197371  0.44461538     0.30200
O2032       O  0.77486893  0.77950813  0.46095709    -1.05000
H2033       H  0.70830884  0.78283039  0.55782472     0.32300
O2034       O  0.72139813  0.77277056  0.54343305    -1.07600
N2035       N  0.00962891  0.53931609  0.54395894    -0.36600
N2036       N  0.96312406  0.00855171  0.52892627    -0.57200
N2037       N  0.99420336  0.96204710  0.51817178    -0.36600
N2038       N  0.54046519  0.99185043  0.53438043    -0.57200
C2039       C  0.99212988  0.55827677  0.53440645     0.27000
C2040       C  0.53382021  0.54951370  0.53751666     0.27000
C2041       C  0.97128915  0.95455878  0.50146315     0.27000
C2042       C  0.51275606  0.94525218  0.50480450     0.27000
C2043       C  0.95240454  0.53095059  0.54287156     0.35600
C2044       C  0.94396428  0.99015390  0.52953394     0.35600
C2045       C  0.55910183  0.50847475  0.54805193     0.35600
C2046       C  0.55045284  0.96729926  0.53698776     0.35600
C2047       C  0.00533015  0.58097438  0.52236376    -0.21900
C2048       C  0.53172681  0.57555163  0.52484235    -0.21900
C2049       C  0.97520805  0.93269131  0.47703849    -0.21900
C2050       C  0.50158873  0.92686404  0.47898929    -0.21900
C2051       C  0.92625707  0.52675383  0.55309200    -0.23000
C2052       C  0.92088035  0.00071291  0.54464228    -0.23000
C2053       C  0.58110700  0.49448833  0.55983121    -0.23000
C2054       C  0.57545443  0.96823815  0.55343002    -0.23000
C2055       C  0.96463613  0.55573807  0.53844448    -0.18300
C2056       C  0.55761376  0.53608494  0.54440520    -0.18300
C2057       C  0.53884002  0.94499109  0.51865683    -0.18300
C2058       C  0.94672288  0.96501449  0.51227341    -0.18300
H2059       H  0.99686483  0.59959400  0.51323229     0.14600
H2060       H  0.54751771  0.58923273  0.51791842     0.14600
H2061       H  0.96046712  0.92165707  0.46058680     0.14600
H2062       H  0.51126590  0.91049196  0.46424032     0.14600
H2063       H  0.91225158  0.54130665  0.56343160     0.12900
H2064       H  0.90195669  0.99100464  0.54743934     0.12900
H2065       H  0.59957405  0.50240151  0.57064744     0.12900
H2066       H  0.58877246  0.95192194  0.55806093     0.12900
H2067       H  0.00540659  0.52129380  0.55770924     0.26100
H2068       H  0.99624440  0.97520898  0.54204518     0.26100
O2069       O  0.49735336  0.95163268  0.88984587    -0.80100
O2070       O  0.50062314  0.95467627  0.12304063    -0.81700
O2071       O  0.54012938  0.92513079  0.00018164    -0.78700
O2072       O  0.95708744  0.92250418  0.01039002    -0.77100
O2073       O  0.92499967  0.95313080  0.00531527    -0.78900
O2074       O  0.57118655  0.95678415  0.99677611    -0.79800
O2075       O  0.50056810  0.92432556  0.07178157    -0.81200
O2076       O  0.49880484  0.92279839  0.94310510    -0.81400
Eu2077     Eu  0.49821904  0.94679198  0.00691468     2.39200
O2078       O  0.97259545  0.97277283  0.05020168    -0.89000
O2079       O  0.52265245  0.97316032  0.96229661    -0.92600
C2080       C  0.49851723  0.92798466  0.90520570     1.02100
C2081       C  0.50133779  0.93045830  0.10937167     1.02000
C2082       C  0.56403830  0.93244634  0.99586128     1.01900
C2083       C  0.93290127  0.92901167  0.00710066     0.99800
H2084       H  0.53689379  0.96260819  0.06255921     0.29500
O2085       O  0.52523801  0.97360092  0.04729112    -1.01300
H2086       H  0.95999170  0.95928050  0.94847802     0.29500
O2087       O  0.97110155  0.97109150  0.96361742    -1.03900
O2088       O  0.50417483  0.54765115  0.11773702    -0.81100
O2089       O  0.49336865  0.54364224  0.88637121    -0.80600
O2090       O  0.57513699  0.99953296  0.06529584    -0.79100
O2091       O  0.92438500  0.99844414  0.07196553    -0.82400
O2092       O  0.92015919  0.49618331  0.94487320    -0.80300
O2093       O  0.57129810  0.49985014  0.93672645    -0.78900
O2094       O  0.53861587  0.57344938  0.00307214    -0.80500
O2095       O  0.95378337  0.57191654  0.00028174    -0.82400
O2096       O  0.57111454  0.54299852  0.99977140    -0.79100
O2097       O  0.92293599  0.53960527  0.00311271    -0.81800
O2098       O  0.54656528  0.00033161  0.11882269    -0.77500
O2099       O  0.54100933  0.49951607  0.88579835    -0.77600
O2100       O  0.94851461  0.49663443  0.89117491    -0.77200
O2101       O  0.95398612  0.00413542  0.12284069    -0.80700
O2102       O  0.49724798  0.57502846  0.06478616    -0.80100
O2103       O  0.49527584  0.57340551  0.93801246    -0.78400
Eu2104     Eu  0.49967564  0.00049577  0.09122235     2.39800
Eu2105     Eu  0.49563503  0.49794672  0.91806333     2.39600
Eu2106     Eu  0.54987413  0.49973222  0.00238937     2.38400
Eu2107     Eu  0.94557006  0.49712283  0.00675430     2.39900
Eu2108     Eu  0.49652484  0.55054084  0.00244790     2.39800
O2109       O  0.96983191  0.52370171  0.96225651    -0.92900
O2110       O  0.52422167  0.52625960  0.04474478    -0.91800
C2111       C  0.50222225  0.57121899  0.10206527     1.02300
C2112       C  0.49362084  0.56775426  0.90036033     1.01000
C2113       C  0.57026350  0.99961168  0.10342268     1.00400
C2114       C  0.92996912  0.00275102  0.10906608     1.02400
C2115       C  0.92486388  0.49603971  0.90682822     1.01300
C2116       C  0.56509897  0.50023983  0.89920603     1.00200
C2117       C  0.56291406  0.56698378  0.00064239     1.00300
C2118       C  0.92974108  0.56404973  0.00064144     1.02900
H2119       H  0.53329538  0.53639849  0.94314661     0.30200
O2120       O  0.52267230  0.52486405  0.95976592    -1.05000
H2121       H  0.96077231  0.53655136  0.06283318     0.32300
O2122       O  0.97182188  0.52480964  0.04728353    -1.07600
N2123       N  0.74720131  0.70764040  0.92291484    -0.36600
N2124       N  0.78732642  0.74823348  0.92591902    -0.57200
N2125       N  0.74761090  0.78960070  0.92247768    -0.36600
N2126       N  0.70748538  0.74910823  0.92119970    -0.57200
C2127       C  0.76822179  0.69268412  0.93249803     0.27000
C2128       C  0.72551429  0.69347231  0.93269243     0.27000
C2129       C  0.76867168  0.80374129  0.93481150     0.27000
C2130       C  0.72612607  0.80426990  0.93068797     0.27000
C2131       C  0.80315739  0.72697360  0.92379526     0.35600
C2132       C  0.80320806  0.76962300  0.92441017     0.35600
C2133       C  0.69165037  0.72776333  0.91885153     0.35600
C2134       C  0.69192625  0.77032416  0.91630492     0.35600
C2135       C  0.75974467  0.66813482  0.94602329    -0.21900
C2136       C  0.73282805  0.66874738  0.94661266    -0.21900
C2137       C  0.76056986  0.82805159  0.94951536    -0.21900
C2138       C  0.73371266  0.82842750  0.94676691    -0.21900
C2139       C  0.82919688  0.73494346  0.92041281    -0.23000
C2140       C  0.82920828  0.76198327  0.92061625    -0.23000
C2141       C  0.66596798  0.73537275  0.91160964    -0.23000
C2142       C  0.66614428  0.76241065  0.90991975    -0.23000
C2143       C  0.79486429  0.70075028  0.93078990    -0.18300
C2144       C  0.69922227  0.70201731  0.92942972    -0.18300
C2145       C  0.69979100  0.79644287  0.92454092    -0.18300
C2146       C  0.79510010  0.79560111  0.93273746    -0.18300
H2147       H  0.77167021  0.65168782  0.95567942     0.14600
H2148       H  0.72012173  0.65281773  0.95661092     0.14600
H2149       H  0.77271407  0.84384022  0.96137438     0.14600
H2150       H  0.72120095  0.84452957  0.95621691     0.14600
H2151       H  0.84651314  0.72263492  0.91969115     0.12900
H2152       H  0.84648062  0.77456432  0.92013597     0.12900
H2153       H  0.64873106  0.72280456  0.90973725     0.12900
H2154       H  0.64903465  0.77483985  0.90666709     0.12900
H2155       H  0.74760550  0.72586781  0.90868060     0.26100
H2156       H  0.74803478  0.77184966  0.90681075     0.26100
C2157       C  0.50484977  0.74965819  0.25741934    -0.02500
C2158       C  0.74961439  0.49806009  0.25555504    -0.02500
C2159       C  0.99922883  0.74942815  0.75318391    -0.02500
C2160       C  0.74597334  0.00083036  0.75553160    -0.02500
C2161       C  0.59432902  0.99791014  0.13002735     0.01300
C2162       C  0.61168432  0.97620922  0.12587421     0.04100
C2163       C  0.63642042  0.97584642  0.14542670    -0.11900
C2164       C  0.64500212  0.99764727  0.16845943     0.23400
C2165       C  0.62759923  0.51925405  0.17330961    -0.12500
C2166       C  0.60240653  0.51925164  0.15473565     0.04900
C2167       C  0.67175153  0.99733105  0.18878884     0.27300
C2168       C  0.67373351  0.49090174  0.22954214    -0.13200
C2169       C  0.69787997  0.49362748  0.25028781     0.05400
C2170       C  0.72272545  0.99822932  0.22961471    -0.09100
C2171       C  0.72036658  0.00140827  0.18630070     0.06200
C2172       C  0.69511913  0.00314312  0.16760263    -0.13500
Br2173     Br  0.63864265  0.54929780  0.20463818    -0.05600
Br2174     Br  0.60164191  0.94657204  0.09306867     0.00000
Br2175     Br  0.69397005  0.49574977  0.30793671     0.00500
Br2176     Br  0.69200678  0.01386040  0.11205415    -0.03900
Br2177     Br  0.57947831  0.54907614  0.16170098     0.00600
Br2178     Br  0.65865224  0.94517401  0.14106593    -0.03200
Br2179     Br  0.64251240  0.47853439  0.25734206    -0.04100
Br2180     Br  0.74943815  0.00046589  0.14850637    -0.00100
C2181       C  0.77697973  0.99789557  0.23005717     0.01300
C2182       C  0.79540948  0.97578411  0.22771696     0.04100
C2183       C  0.81846992  0.97724110  0.20392837    -0.11900
C2184       C  0.82930659  0.00173325  0.19405486     0.23400
C2185       C  0.81419079  0.52437769  0.20062627    -0.12500
C2186       C  0.78759745  0.52225531  0.21319139     0.04900
C2187       C  0.85594840  0.00363285  0.17465924     0.27300
C2188       C  0.87945341  0.99910348  0.19633724    -0.13200
C2189       C  0.90429033  0.99959333  0.17642846     0.05400
C2190       C  0.90587870  0.00662918  0.13526032    -0.09100
C2191       C  0.88240439  0.51541710  0.11650782     0.06200
C2192       C  0.85774899  0.51121360  0.13425223    -0.13500
Br2193     Br  0.83046498  0.55864074  0.19225389    -0.05600
Br2194     Br  0.79875470  0.94641703  0.26449981     0.00000
Br2195     Br  0.93561119  0.99174896  0.20630761     0.00500
Br2196     Br  0.82630032  0.51523204  0.10229749    -0.03900
Br2197     Br  0.76740636  0.55376622  0.20330599     0.00600
Br2198     Br  0.83689085  0.94550839  0.18737465    -0.03200
Br2199     Br  0.87744913  0.99261371  0.25334556    -0.04100
Br2200     Br  0.88330856  0.53764508  0.06970729    -0.00100
C2201       C  0.50401973  0.90710185  0.13719700     0.01300
C2202       C  0.02425490  0.88858160  0.12981685     0.04100
C2203       C  0.02415008  0.86348119  0.14842045    -0.11900
C2204       C  0.50441149  0.85655836  0.17649622     0.23400
C2205       C  0.48486373  0.87556435  0.18571034    -0.12500
C2206       C  0.48448734  0.90046605  0.16581982     0.04900
C2207       C  0.50471401  0.82932348  0.19562206     0.27300
C2208       C  0.98823439  0.80890353  0.18176153    -0.13200
C2209       C  0.98965452  0.78283013  0.19816349     0.05400
C2210       C  0.50820129  0.77598719  0.22950215    -0.09100
C2211       C  0.52790983  0.79622483  0.23618873     0.06200
C2212       C  0.52427665  0.82273117  0.22341558    -0.13500
Br2213     Br  0.45814330  0.86748437  0.22493961    -0.05600
Br2214     Br  0.05278131  0.89767063  0.09426579     0.00000
Br2215     Br  0.96762881  0.75741660  0.17146533     0.00500
Br2216     Br  0.54616284  0.85071969  0.24494420    -0.03900
Br2217     Br  0.45627504  0.92479168  0.17598058     0.00600
Br2218     Br  0.05072173  0.83798212  0.13388909    -0.03200
Br2219     Br  0.96328529  0.81728621  0.13984203    -0.04100
Br2220     Br  0.56407465  0.78908717  0.24748480    -0.00100
C2221       C  0.50549354  0.59655786  0.12648077     0.01300
C2222       C  0.00692210  0.62135038  0.10586400     0.04100
C2223       C  0.00290251  0.64528959  0.12628906    -0.11900
C2224       C  0.50419216  0.64624566  0.16839969     0.23400
C2225       C  0.50714067  0.62219229  0.18968865    -0.12500
C2226       C  0.50642509  0.59743833  0.16920323     0.04900
C2227       C  0.50331863  0.67276119  0.18924730     0.27300
C2228       C  0.52341726  0.69151994  0.18294402    -0.13200
C2229       C  0.52176805  0.71735660  0.19954939     0.05400
C2230       C  0.50141660  0.72433260  0.22789868    -0.09100
C2231       C  0.97903356  0.70627056  0.22775092     0.06200
C2232       C  0.98081646  0.68061816  0.21043948    -0.13500
Br2233     Br  0.51263788  0.62325941  0.24694222    -0.05600
Br2234     Br  0.01985012  0.62463732  0.05132818     0.00000
Br2235     Br  0.54867365  0.74171228  0.18223670     0.00500
Br2236     Br  0.95137116  0.65610178  0.21304374    -0.03900
Br2237     Br  0.50819573  0.56544676  0.20051645     0.00600
Br2238     Br  0.99526263  0.67695266  0.09587023    -0.03200
Br2239     Br  0.55513556  0.68038291  0.15541648    -0.04100
Br2240     Br  0.94290032  0.71658627  0.23757678    -0.00100
C2241       C  0.67899179  0.81567361  0.93426593     0.01300
C2242       C  0.66757050  0.83096198  0.90371075     0.04100
C2243       C  0.64805994  0.84935465  0.91357268    -0.11900
C2244       C  0.64065336  0.85280683  0.95406965     0.23400
C2245       C  0.65189135  0.83735095  0.98455839    -0.12500
C2246       C  0.67084010  0.81851480  0.97458056     0.04900
C2247       C  0.62124046  0.87296557  0.96495054     0.27300
C2248       C  0.62925637  0.89932568  0.96907848    -0.13200
C2249       C  0.61102316  0.91877461  0.98002316     0.05400
C2250       C  0.58420510  0.91163662  0.98767957    -0.09100
C2251       C  0.57667807  0.88433155  0.98436029     0.06200
C2252       C  0.59521335  0.86541487  0.97249527    -0.13500
Br2253     Br  0.64130777  0.84216861  0.03994265    -0.05600
Br2254     Br  0.67875153  0.82664239  0.84867029     0.00000
Br2255     Br  0.62450442  0.95471902  0.98307714     0.00500
Br2256     Br  0.58521273  0.82863780  0.96587556    -0.03900
Br2257     Br  0.68582443  0.79670508  0.01613904     0.00600
Br2258     Br  0.63133900  0.86977603  0.87195170    -0.03200
Br2259     Br  0.66574889  0.90849908  0.95945456    -0.04100
Br2260     Br  0.54132577  0.87093320  0.99416820    -0.00100
C2261       C  0.91302027  0.90753514  0.00264576     0.01300
C2262       C  0.91962636  0.88319613  0.98355336     0.04100
C2263       C  0.89975383  0.86494570  0.97388121    -0.11900
C2264       C  0.87332530  0.87135936  0.98069179     0.23400
C2265       C  0.86661633  0.89491729  0.00041173    -0.12500
C2266       C  0.88645514  0.91222633  0.01350924     0.04900
C2267       C  0.85266718  0.85259037  0.96844612     0.27300
C2268       C  0.84446680  0.85157148  0.92802797    -0.13200
C2269       C  0.82575421  0.83270329  0.91615465     0.05400
C2270       C  0.81545854  0.81491905  0.94466082    -0.09100
C2271       C  0.82388713  0.81573001  0.98493970     0.06200
C2272       C  0.84235143  0.83474569  0.99691396    -0.13500
Br2273     Br  0.83006960  0.90380569  0.00804151    -0.05600
Br2274     Br  0.95520778  0.87405719  0.96828326     0.00000
Br2275     Br  0.81449516  0.83064640  0.86090091     0.00500
Br2276     Br  0.85381963  0.83624954  0.05215253    -0.03900
Br2277     Br  0.87673615  0.94149870  0.04786580     0.00600
Br2278     Br  0.90841804  0.83097870  0.95058787    -0.03200
Br2279     Br  0.85911581  0.87577925  0.88903839    -0.04100
Br2280     Br  0.81031508  0.79055498  0.02348470    -0.00100
C2281       C  0.81516204  0.68152650  0.94325948     0.01300
C2282       C  0.83123510  0.66922766  0.91432282     0.04100
C2283       C  0.85109692  0.65193094  0.92670951    -0.11900
C2284       C  0.85363402  0.64552227  0.96777573     0.23400
C2285       C  0.83715965  0.65734778  0.99661760    -0.12500
C2286       C  0.81856214  0.67605010  0.98452100     0.04900
C2287       C  0.87210796  0.62464553  0.97999295     0.27300
C2288       C  0.86564499  0.59817166  0.97221971    -0.13200
C2289       C  0.88443010  0.57832917  0.97788132     0.05400
C2290       C  0.90876911  0.58445092  0.99679983    -0.09100
C2291       C  0.91357558  0.61096807  0.00926214     0.06200
C2292       C  0.89612822  0.63113038  0.99819190    -0.13500
Br2293     Br  0.83924912  0.64694181  0.05233813    -0.05600
Br2294     Br  0.82560020  0.67570708  0.85786303     0.00000
Br2295     Br  0.87662572  0.54394541  0.95544215     0.00500
Br2296     Br  0.90559149  0.66780977  0.00592764    -0.03900
Br2297     Br  0.79745947  0.69393783  0.02444559     0.00600
Br2298     Br  0.87469151  0.63669132  0.88754189    -0.03200
Br2299     Br  0.83083867  0.58947282  0.95303982    -0.04100
Br2300     Br  0.94365380  0.62056390  0.04167128    -0.00100
C2301       C  0.67832798  0.68345725  0.94222640     0.01300
C2302       C  0.66786999  0.68530288  0.98148122     0.04100
C2303       C  0.64908759  0.66683598  0.99453614    -0.11900
C2304       C  0.64128495  0.64631869  0.96863487     0.23400
C2305       C  0.65148227  0.64468175  0.92925619    -0.12500
C2306       C  0.66980106  0.66349122  0.91588618     0.04900
C2307       C  0.62089659  0.62745915  0.98150081     0.27300
C2308       C  0.62765782  0.60466886  0.00310384    -0.13200
C2309       C  0.60828886  0.58568337  0.01219597     0.05400
C2310       C  0.58249940  0.58859397  0.99669673    -0.09100
C2311       C  0.57606090  0.61181728  0.97487909     0.06200
C2312       C  0.59492033  0.63171490  0.96949419    -0.13500
Br2313     Br  0.64004450  0.61686573  0.89355604    -0.05600
Br2314     Br  0.67933726  0.71303849  0.01735235     0.00000
Br2315     Br  0.61765853  0.55622975  0.04625510     0.00500
Br2316     Br  0.58560716  0.66483328  0.94446945    -0.03900
Br2317     Br  0.68295631  0.66238129  0.86143567     0.00600
Br2318     Br  0.63347780  0.66983717  0.04733771    -0.03200
Br2319     Br  0.66369870  0.59934229  0.01907707    -0.04100
Br2320     Br  0.54295166  0.61602239  0.94722748    -0.00100
C2321       C  0.77118284  0.49708127  0.78493904     0.01300
C2322       C  0.77744804  0.51555368  0.81673780     0.04100
C2323       C  0.80259256  0.51562853  0.83602232    -0.11900
C2324       C  0.82305807  0.49906957  0.82263624     0.23400
C2325       C  0.81691544  0.98021184  0.79321495    -0.12500
C2326       C  0.79079724  0.97675211  0.77957616     0.04900
C2327       C  0.84976619  0.49850056  0.84306762     0.27300
C2328       C  0.86996164  0.51709867  0.83418829    -0.13200
C2329       C  0.89493215  0.51567333  0.85324406     0.05400
C2330       C  0.90052330  0.49525186  0.88084237    -0.09100
C2331       C  0.88036290  0.47649204  0.88914487     0.06200
C2332       C  0.85531197  0.47827257  0.87094850    -0.13500
Br2333     Br  0.84454698  0.95792724  0.77228099    -0.05600
Br2334     Br  0.75311876  0.54199211  0.83486469     0.00000
Br2335     Br  0.92070549  0.54315589  0.84421640     0.00500
Br2336     Br  0.82798720  0.95324230  0.88537517    -0.03900
Br2337     Br  0.78283330  0.93981243  0.77143597     0.00600
Br2338     Br  0.80980463  0.53934174  0.88003856    -0.03200
Br2339     Br  0.86358870  0.54511173  0.79662444    -0.04100
Br2340     Br  0.88679527  0.44783365  0.92569430    -0.00100
C2341       C  0.58836867  0.50237593  0.87130863     0.01300
C2342       C  0.60840654  0.52088022  0.88065904     0.04100
C2343       C  0.63372633  0.51884171  0.86369822    -0.11900
C2344       C  0.63920189  0.49950509  0.83440685     0.23400
C2345       C  0.61857306  0.98228219  0.82223196    -0.12500
C2346       C  0.59331364  0.98369349  0.84062341     0.04900
C2347       C  0.66616973  0.49923046  0.81515716     0.27300
C2348       C  0.67297144  0.51892402  0.78737693    -0.13200
C2349       C  0.69953869  0.52331507  0.77620510     0.05400
C2350       C  0.71948017  0.50345004  0.78273675    -0.09100
C2351       C  0.71214591  0.98404257  0.81280616     0.06200
C2352       C  0.68629420  0.98297551  0.82971800    -0.13500
Br2353     Br  0.62484199  0.95641189  0.78100135    -0.05600
Br2354     Br  0.60068754  0.55061379  0.91467935     0.00000
Br2355     Br  0.70676499  0.56049027  0.76972861     0.00500
Br2356     Br  0.67789817  0.95907154  0.87331649    -0.03900
Br2357     Br  0.56555018  0.96030863  0.82350606     0.00600
Br2358     Br  0.66139464  0.54234315  0.88157359    -0.03200
Br2359     Br  0.64544937  0.54107801  0.76595629    -0.04100
Br2360     Br  0.73615504  0.95834913  0.83352525    -0.00100
C2361       C  0.49182704  0.59159801  0.87309346     0.01300
C2362       C  0.47699821  0.61370062  0.88620326     0.04100
C2363       C  0.48026899  0.63878747  0.86862566    -0.11900
C2364       C  0.49542201  0.64177398  0.83355976     0.23400
C2365       C  0.00806129  0.61926368  0.81725749    -0.12500
C2366       C  0.00729795  0.59461516  0.83788618     0.04900
C2367       C  0.49647671  0.66834760  0.81309845     0.27300
C2368       C  0.97489468  0.67721955  0.79121422    -0.13200
C2369       C  0.97570185  0.70167462  0.77029016     0.05400
C2370       C  0.99723113  0.72083248  0.77579798    -0.09100
C2371       C  0.51928106  0.71026312  0.79827926     0.06200
C2372       C  0.51853779  0.68478519  0.81641941    -0.13500
Br2373     Br  0.02629973  0.62234597  0.76657869    -0.05600
Br2374     Br  0.44992658  0.60962498  0.92582870     0.00000
Br2375     Br  0.94992865  0.70101362  0.72721032     0.00500
Br2376     Br  0.54765709  0.67201375  0.84818370    -0.03900
Br2377     Br  0.02850342  0.56575224  0.81886009     0.00600
Br2378     Br  0.46409747  0.66943107  0.89303315    -0.03200
Br2379     Br  0.94425279  0.65396280  0.78828739    -0.04100
Br2380     Br  0.55180085  0.72917989  0.80703885    -0.00100
C2381       C  0.49952862  0.90423154  0.87868915     0.01300
C2382       C  0.97600907  0.89224659  0.86548530     0.04100
C2383       C  0.97617877  0.86633933  0.84942923    -0.11900
C2384       C  0.50002613  0.85234130  0.84516777     0.23400
C2385       C  0.52370079  0.86475720  0.85706554    -0.12500
C2386       C  0.52337065  0.89035564  0.87414006     0.04900
C2387       C  0.50031774  0.82603371  0.82386095     0.27300
C2388       C  0.00174532  0.80199943  0.84489240    -0.13200
C2389       C  0.00046178  0.77713609  0.82451880     0.05400
C2390       C  0.99954155  0.77577865  0.78077831    -0.09100
C2391       C  0.49839101  0.80135188  0.76061961     0.06200
C2392       C  0.49878754  0.82553043  0.78198922    -0.13500
Br2393     Br  0.55670133  0.84679439  0.84987442    -0.05600
Br2394     Br  0.94343718  0.91130368  0.87020601     0.00000
Br2395     Br  0.99757690  0.74723593  0.86075522     0.00500
Br2396     Br  0.49968422  0.85915341  0.75373105    -0.03900
Br2397     Br  0.55574117  0.90656367  0.89138847     0.00600
Br2398     Br  0.94361264  0.84973666  0.83355173    -0.03200
Br2399     Br  0.00605251  0.80382952  0.90271945    -0.04100
Br2400     Br  0.50014082  0.80581657  0.70278802    -0.00100
C2401       C  0.84210841  0.76677779  0.63704752     0.01300
C2402       C  0.86154472  0.78641575  0.62916572     0.04100
C2403       C  0.88684721  0.78505534  0.64683583    -0.11900
C2404       C  0.89352474  0.76387903  0.67238532     0.23400
C2405       C  0.87343800  0.74549751  0.68292062    -0.12500
C2406       C  0.84792323  0.74714467  0.66581643     0.04900
C2407       C  0.92093703  0.76201016  0.69028108     0.27300
C2408       C  0.94305366  0.75432437  0.66741340    -0.13200
C2409       C  0.96879384  0.75302121  0.68480889     0.05400
C2410       C  0.97228805  0.75414589  0.72817739    -0.09100
C2411       C  0.94838856  0.76057734  0.75025587     0.06200
C2412       C  0.92474726  0.76761820  0.73091754    -0.13500
Br2413     Br  0.88081480  0.71748381  0.72038996    -0.05600
Br2414     Br  0.85330268  0.81591279  0.59468791     0.00000
Br2415     Br  0.99697150  0.75041582  0.64596656    -0.00500
Br2416     Br  0.89666465  0.78463379  0.76060194    -0.03900
Br2417     Br  0.82117464  0.72190763  0.68113262     0.00600
Br2418     Br  0.91242192  0.81260543  0.63672906    -0.03200
Br2419     Br  0.93739568  0.74408826  0.61208530    -0.04100
Br2420     Br  0.94380654  0.75513875  0.80716697    -0.00100
C2421       C  0.65341214  0.74853797  0.62401103     0.01300
C2422       C  0.62894723  0.75314417  0.60363744     0.04100
C2423       C  0.60464552  0.75133642  0.62400974    -0.11900
C2424       C  0.60371267  0.74571039  0.66515404     0.23400
C2425       C  0.62751984  0.74258646  0.68633922    -0.12500
C2426       C  0.65218612  0.74450553  0.66628168     0.04900
C2427       C  0.57765575  0.74620083  0.68659508     0.27300
C2428       C  0.56956691  0.76929665  0.70549201    -0.13200
C2429       C  0.54766366  0.76899891  0.73151429     0.05400
C2430       C  0.52700812  0.74874030  0.72823255    -0.09100
C2431       C  0.53541400  0.72564187  0.70545067     0.06200
C2432       C  0.56087745  0.72416595  0.68744338    -0.13500
Br2433     Br  0.62603196  0.73545635  0.74326882    -0.05600
Br2434     Br  0.62677342  0.76437195  0.54825140     0.00000
Br2435     Br  0.55573032  0.79141006  0.77761422     0.00500
Br2436     Br  0.57332186  0.69197082  0.66246372    -0.03900
Br2437     Br  0.68371915  0.74276488  0.69809979     0.00600
Br2438     Br  0.57190430  0.75738765  0.59582889    -0.03200
Br2439     Br  0.59032074  0.80126782  0.69802201    -0.04100
Br2440     Br  0.51386935  0.69464447  0.69650665    -0.00100
C2441       C  0.75040722  0.52723083  0.72838140     0.01300
C2442       C  0.73305326  0.53489306  0.69622254     0.04100
C2443       C  0.73235396  0.56147188  0.68179036    -0.11900
C2444       C  0.74959826  0.58096313  0.69680855     0.23400
C2445       C  0.76866897  0.57318996  0.72450609    -0.12500
C2446       C  0.77102707  0.54637527  0.73593617     0.04900
C2447       C  0.75219515  0.60748254  0.67623959     0.27300
C2448       C  0.76626510  0.60891234  0.63991121    -0.13200
C2449       C  0.76935832  0.63316551  0.61938519     0.05400
C2450       C  0.75803679  0.65718830  0.63474934    -0.09100
C2451       C  0.74534572  0.65574476  0.67288343     0.06200
C2452       C  0.74237937  0.63110512  0.69318945    -0.13500
Br2453     Br  0.79383219  0.59922509  0.74343280    -0.05600
Br2454     Br  0.71190311  0.51006382  0.66680561     0.00000
Br2455     Br  0.79004829  0.63159837  0.57023745     0.00500
Br2456     Br  0.72463506  0.62954362  0.74441784    -0.03900
Br2457     Br  0.80735508  0.53677039  0.74182972     0.00600
Br2458     Br  0.70635137  0.57225878  0.64305826    -0.03200
Br2459     Br  0.78170759  0.57686071  0.61831639    -0.04100
Br2460     Br  0.73143063  0.68701939  0.69800949    -0.00100
C2461       C  0.74278473  0.97529765  0.72650604     0.01300
C2462       C  0.72108801  0.95685038  0.72962052     0.04100
C2463       C  0.72348610  0.93028498  0.71717913    -0.11900
C2464       C  0.74391512  0.92265189  0.69151199     0.23400
C2465       C  0.76257646  0.94190966  0.68002434    -0.12500
C2466       C  0.76216115  0.96786527  0.69687930     0.04900
C2467       C  0.74252758  0.89630899  0.67033420     0.27300
C2468       C  0.75216429  0.87284770  0.68782114    -0.13200
C2469       C  0.75116394  0.84845165  0.66666255     0.05400
C2470       C  0.74020647  0.84705111  0.62742331    -0.09100
C2471       C  0.72916485  0.87075854  0.61113070     0.06200
C2472       C  0.73052865  0.89489618  0.63239273    -0.13500
Br2473     Br  0.79021400  0.93146390  0.64349133    -0.05600
Br2474     Br  0.68482335  0.96769266  0.73021978     0.00000
Br2475     Br  0.76620150  0.81762402  0.69174990     0.00500
Br2476     Br  0.71581193  0.92672990  0.60941411    -0.03900
Br2477     Br  0.78846670  0.99186457  0.67707307     0.00600
Br2478     Br  0.69699349  0.90456667  0.73246971    -0.03200
Br2479     Br  0.76699008  0.87414647  0.74097447    -0.04100
Br2480     Br  0.71162559  0.87176871  0.55945454    -0.00100
C2481       C  0.85248193  0.67988310  0.51629839     0.01300
C2482       C  0.87015446  0.67666102  0.48400724     0.04100
C2483       C  0.89165868  0.65956421  0.48808906    -0.11900
C2484       C  0.89339827  0.64313043  0.52220835     0.23400
C2485       C  0.87522392  0.64595893  0.55398869    -0.12500
C2486       C  0.85628662  0.66588530  0.55226936     0.04900
C2487       C  0.91335201  0.62204337  0.52404443     0.27300
C2488       C  0.91157720  0.60025165  0.49774882    -0.13200
C2489       C  0.93013663  0.57999709  0.50010478     0.05400
C2490       C  0.94776307  0.57924350  0.53278652    -0.09100
C2491       C  0.94887749  0.60056102  0.56005039     0.06200
C2492       C  0.93309339  0.62282158  0.55369954    -0.13500
Br2493     Br  0.87478840  0.62141798  0.59847031    -0.05600
Br2494     Br  0.86390774  0.69398359  0.43342630     0.00000
Br2495     Br  0.93163622  0.55373249  0.45789911     0.00500
Br2496     Br  0.93841827  0.65427262  0.58562945    -0.03900
Br2497     Br  0.83702872  0.67540400  0.60003078     0.00600
Br2498     Br  0.91842983  0.65824205  0.44690795    -0.03200
Br2499     Br  0.88280247  0.59704576  0.46023140    -0.04100
Br2500     Br  0.97055912  0.59863686  0.60745936    -0.00100
C2501       C  0.58231748  0.55145426  0.54339020     0.01300
C2502       C  0.59379735  0.56021458  0.57947119     0.04100
C2503       C  0.61583724  0.57695390  0.57812076    -0.11900
C2504       C  0.62562032  0.58563869  0.54071831     0.23400
C2505       C  0.61499695  0.57577018  0.50466652    -0.12500
C2506       C  0.59341069  0.55849640  0.50599314     0.04900
C2507       C  0.64447457  0.60778774  0.53899359     0.27300
C2508       C  0.63489237  0.63368008  0.53975814    -0.13200
C2509       C  0.65214054  0.65516008  0.53478322     0.05400
C2510       C  0.67951812  0.65079713  0.52770364    -0.09100
C2511       C  0.68912789  0.62433644  0.53085788     0.06200
C2512       C  0.67145001  0.60305719  0.53558947    -0.13500
Br2513     Br  0.62927509  0.58703515  0.45357342    -0.05600
Br2514     Br  0.57830792  0.55054045  0.63044013     0.00000
Br2515     Br  0.63690712  0.68997060  0.54103852     0.00500
Br2516     Br  0.68372600  0.56694428  0.53680853    -0.03900
Br2517     Br  0.57780510  0.54595174  0.45662485     0.00600
Br2518     Br  0.63205373  0.58890384  0.62722537    -0.03200
Br2519     Br  0.59755717  0.63947092  0.54727008    -0.04100
Br2520     Br  0.72606229  0.61559314  0.53066544    -0.00100
C2521       C  0.65182253  0.82144264  0.50186421     0.01300
C2522       C  0.64662128  0.83505970  0.53794354     0.04100
C2523       C  0.62675424  0.85413944  0.53928834    -0.11900
C2524       C  0.61067106  0.85809193  0.50547901     0.23400
C2525       C  0.61397249  0.84237982  0.47086954    -0.12500
C2526       C  0.63448498  0.82389101  0.46914494     0.04900
C2527       C  0.59082286  0.87928020  0.50598951     0.27300
C2528       C  0.56729418  0.87609396  0.52799227    -0.13200
C2529       C  0.55005398  0.89752857  0.53224644     0.05400
C2530       C  0.55525555  0.92132099  0.51147546    -0.09100
C2531       C  0.57730993  0.92330265  0.48588063     0.06200
C2532       C  0.59592532  0.90302467  0.48526625    -0.13500
Br2533     Br  0.59083665  0.84702050  0.42559087    -0.05600
Br2534     Br  0.66463399  0.82532269  0.58668211     0.00000
Br2535     Br  0.52023231  0.89465111  0.56809575     0.00500
Br2536     Br  0.62920474  0.90854539  0.45843507    -0.03900
Br2537     Br  0.63844780  0.80171668  0.42250932     0.00600
Br2538     Br  0.62238738  0.87566911  0.58677024    -0.03200
Br2539     Br  0.55914612  0.84259014  0.55297617    -0.04100
Br2540     Br  0.58189641  0.95375832  0.45151209    -0.00100
C2541       C  0.82352615  0.85170464  0.49518644     0.01300
C2542       C  0.84428170  0.85151663  0.46696578     0.04100
C2543       C  0.86318652  0.87172769  0.46726774    -0.11900
C2544       C  0.86002200  0.89339776  0.49323835     0.23400
C2545       C  0.83776077  0.89513461  0.51830076    -0.12500
C2546       C  0.81990148  0.87392505  0.52027305     0.04900
C2547       C  0.88161522  0.91257238  0.49802508     0.27300
C2548       C  0.89852796  0.90994697  0.53120226    -0.13200
C2549       C  0.91908006  0.92799737  0.53661386     0.05400
C2550       C  0.92346324  0.94791913  0.50791586    -0.09100
C2551       C  0.90687219  0.95043981  0.47438313     0.06200
C2552       C  0.88565342  0.93287716  0.46963842    -0.13500
Br2553     Br  0.83279283  0.92608205  0.55139181    -0.05600
Br2554     Br  0.84612749  0.82448051  0.42630029     0.00000
Br2555     Br  0.94143627  0.92547288  0.58328542     0.00500
Br2556     Br  0.86261001  0.93611271  0.42398083    -0.03900
Br2557     Br  0.79196082  0.87473809  0.55956019     0.00600
Br2558     Br  0.89430035  0.86885746  0.43414119    -0.03200
Br2559     Br  0.89426224  0.88089787  0.56833329    -0.04100
Br2560     Br  0.91387872  0.97731827  0.43459399    -0.00100
C2561       C  0.66236811  0.73855160  0.37107618     0.01300
C2562       C  0.64227645  0.71975287  0.37913557     0.04100
C2563       C  0.61670189  0.72291102  0.36344153    -0.11900
C2564       C  0.61082210  0.74418784  0.33754421     0.23400
C2565       C  0.63136831  0.76204314  0.32728928    -0.12500
C2566       C  0.65695136  0.75917439  0.34373705     0.04900
C2567       C  0.58362420  0.74592224  0.31917771     0.27300
C2568       C  0.57649209  0.72805793  0.28893821    -0.13200
C2569       C  0.54989201  0.72472539  0.27797917     0.05400
C2570       C  0.53050532  0.74490319  0.28599415    -0.09100
C2571       C  0.53743676  0.76139537  0.31996788     0.06200
C2572       C  0.56352365  0.76149000  0.33622589    -0.13500
Br2573     Br  0.62452927  0.79132957  0.29224144    -0.05600
Br2574     Br  0.64999374  0.68895398  0.41130587     0.00000
Br2575     Br  0.54136682  0.68755104  0.27365485     0.00500
Br2576     Br  0.57237201  0.78364500  0.38139205    -0.03900
Br2577     Br  0.68413957  0.78446987  0.33038914     0.00600
Br2578     Br  0.58922656  0.69838507  0.37880063    -0.03200
Br2579     Br  0.60308325  0.70562252  0.26529956    -0.04100
Br2580     Br  0.51218057  0.78195257  0.34938724    -0.00100
C2581       C  0.85047842  0.75645119  0.38357898     0.01300
C2582       C  0.85184330  0.75222122  0.34125144     0.04100
C2583       C  0.87653169  0.75058940  0.32117526    -0.11900
C2584       C  0.90032085  0.75502117  0.34197703     0.23400
C2585       C  0.89919914  0.76156000  0.38295059    -0.12500
C2586       C  0.87511060  0.76098136  0.40419977     0.04900
C2587       C  0.92680382  0.75368089  0.32136784     0.27300
C2588       C  0.94475946  0.73351607  0.33080218    -0.13200
C2589       C  0.97054707  0.73324036  0.31384791     0.05400
C2590       C  0.97911687  0.75316923  0.28563020    -0.09100
C2591       C  0.96205508  0.77595727  0.28410303     0.06200
C2592       C  0.93569429  0.77482149  0.29775388    -0.13500
Br2593     Br  0.93140252  0.77209524  0.40994572    -0.05600
Br2594     Br  0.82044822  0.74915925  0.30913452     0.00000
Br2595     Br  0.99239181  0.70454574  0.33040001     0.00500
Br2596     Br  0.91204463  0.80389403  0.28713574    -0.03900
Br2597     Br  0.87859807  0.76566506  0.46220673     0.00600
Br2598     Br  0.87784808  0.74242674  0.26456239    -0.03200
Br2599     Br  0.93275257  0.70483386  0.36470162    -0.04100
Br2600     Br  0.97485881  0.81183943  0.28213105    -0.00100
C2601       C  0.74660161  0.97033120  0.27959347     0.01300
C2602       C  0.74950713  0.96620637  0.32264755     0.04100
C2603       C  0.75093246  0.94013468  0.33881149    -0.11900
C2604       C  0.74345899  0.91797751  0.31598137     0.23400
C2605       C  0.73548638  0.92185206  0.27639392    -0.12500
C2606       C  0.73959247  0.94647888  0.25726594     0.04900
C2607       C  0.74236657  0.89070930  0.33408970     0.27300
C2608       C  0.76264049  0.87211499  0.32732362    -0.13200
C2609       C  0.76178851  0.84689523  0.34571106     0.05400
C2610       C  0.74044609  0.83972124  0.37063456    -0.09100
C2611       C  0.71947531  0.85785896  0.37545495     0.06200
C2612       C  0.72044725  0.88307346  0.35735781    -0.13500
Br2613     Br  0.71929452  0.89250827  0.24807648    -0.05600
Br2614     Br  0.74772416  0.99330801  0.36378037     0.00000
Br2615     Br  0.79120935  0.82322220  0.33992011     0.00500
Br2616     Br  0.69186685  0.90761067  0.36499238    -0.03900
Br2617     Br  0.73994232  0.94363360  0.19933802     0.00600
Br2618     Br  0.76311607  0.93417356  0.39310113    -0.03200
Br2619     Br  0.79224981  0.88124090  0.29404030    -0.04100
Br2620     Br  0.68940170  0.84870409  0.40794684    -0.00100
C2621       C  0.76010576  0.65285599  0.38180568     0.01300
C2622       C  0.74377009  0.63188653  0.39527542     0.04100
C2623       C  0.74686399  0.60602397  0.38044267    -0.11900
C2624       C  0.76330904  0.60116399  0.34715425     0.23400
C2625       C  0.77843970  0.62242266  0.33136232    -0.12500
C2626       C  0.77756436  0.64790018  0.34954766     0.04900
C2627       C  0.76021767  0.57533189  0.32477349     0.27300
C2628       C  0.77870443  0.55500168  0.32728053    -0.13200
C2629       C  0.77506914  0.53063645  0.30633509     0.05400
C2630       C  0.75164608  0.52499442  0.28266673    -0.09100
C2631       C  0.73345874  0.54742175  0.27997684     0.06200
C2632       C  0.73767879  0.57129429  0.30167040    -0.13500
Br2633     Br  0.79994371  0.61670100  0.28440466    -0.05600
Br2634     Br  0.71445220  0.63914260  0.43024194     0.00000
Br2635     Br  0.80371233  0.50588886  0.31253431     0.00500
Br2636     Br  0.71303705  0.60073379  0.29819343    -0.03900
Br2637     Br  0.80024502  0.67580403  0.33047682     0.00600
Br2638     Br  0.72759489  0.57712367  0.40475814    -0.03200
Br2639     Br  0.80912636  0.56093807  0.36100032    -0.04100
Br2640     Br  0.70549843  0.55249809  0.24095343    -0.00100
loop_ 
_geom_bond_atom_site_label_1 
_geom_bond_atom_site_label_2 
_geom_bond_distance 
_geom_bond_site_symmetry_2 
_ccdc_geom_bond_type 
O1           C12   1.307       .  A
O1          Eu37   2.547       .  S
O2           C13   1.312       .  A
O2          Eu36   2.578       .  S
O3           C14   1.289       .  A
O3           Eu9   2.457       .  S
O4           C15   1.284       .  A
O4           Eu9   2.446       .  S
O5           C15   1.284       .  A
O5          Eu39   2.442       .  S
O6           C14   1.285       .  A
O6          Eu38   2.440       .  S
O7           C13   1.278       .  A
O7           Eu9   2.402       .  S
O8           C12   1.288       .  A
O8           Eu9   2.435       .  S
Eu9          O19   2.354       .  S
Eu9          O11   2.339       .  S
Eu9          O10   2.342       .  S
Eu9          O17   2.352       .  S
O10         Eu39   2.337       .  S
O10         Eu36   2.369       .  S
O11         Eu37   2.377       .  S
O11         Eu38   2.353       .  S
C12         C641   1.505       .  S
C13         C470   1.530       .  S
C14         C501   1.467       .  S
C15         C530   1.505       .  S
H16          O17   0.960       .  S
O17         Eu38   2.349       .  S
O17         Eu36   2.379       .  S
H18          O19   0.965       .  S
O19         Eu37   2.384       .  S
O19         Eu39   2.343       .  S
O20          C43   1.305       .  A
O20         Eu36   2.538       .  S
O21          C44   1.306       .  A
O21         Eu37   2.539       .  S
O22          C45   1.286       .  A
O22         Eu38   2.429       .  S
O23          C46   1.281       .  A
O23         Eu39   2.420       .  S
O24          C47   1.286       .  A
O24         Eu39   2.425       .  S
O25          C48   1.274       .  A
O25         Eu38   2.403       .  S
O26          C49   1.284       .  A
O26         Eu40   2.433       .  S
O27          C50   1.288       .  A
O27         Eu40   2.455       .  S
O28          C49   1.289       .  A
O28         Eu38   2.454       .  S
O29          C50   1.284       .  A
O29         Eu39   2.439       .  S
O30          C45   1.310       .  A
O30         Eu36   2.562       .  S
O31          C48   1.307       .  A
O31         Eu37   2.559       .  S
O32          C47   1.306       .  A
O32         Eu37   2.542       .  S
O33          C46   1.309       .  A
O33         Eu36   2.564       .  S
O34          C43   1.283       .  A
O34         Eu40   2.428       .  S
O35          C44   1.284       .  A
O35         Eu40   2.417       .  S
Eu36         O54   2.381       .  S
Eu36         O42   2.381       .  S
Eu37         O41   2.375       .  S
Eu37         O52   2.385       .  S
Eu38         O52   2.348       .  S
Eu38         O42   2.339       .  S
Eu39         O41   2.338       .  S
Eu39         O54   2.349       .  S
Eu40         O41   2.345       .  S
Eu40         O52   2.353       .  S
Eu40         O54   2.337       .  S
Eu40         O42   2.351       .  S
C43         C490   1.520       .  S
C44         C630   1.496       .  S
C45         C421   1.512       .  S
C46         C441   1.527       .  S
C47         C581   1.504       .  S
C48         C601   1.534       .  S
C49         C561   1.472       .  S
C50         C541   1.472       .  S
H51          O52   0.968       .  S
H53          O54   0.966       .  S
N55          H87   1.042       .  S
N55          C59   1.351       .  A
N55        C1380   1.349       .  A
N56          C64   1.345       .  A
N56         C723   1.344       .  A
N57          H88   1.041       .  S
N57          C61   1.346       .  A
N57        C1382   1.348       .  A
N58          C66   1.348       .  A
N58         C725   1.346       .  A
C59          C67   1.386       .  A
C59          C75   1.410       .  A
C60        N1375   1.349       .  A
C60          C76   1.411       .  A
C60          C68   1.388       .  A
C61          C69   1.387       .  A
C61          C78   1.405       .  A
C62        N1377   1.348   1_455  A
C62          C77   1.407       .  A
C62          C70   1.387       .  A
C63         N716   1.344       .  A
C63          C75   1.405       .  A
C63          C71   1.387       .  A
C64          C78   1.403       .  A
C64          C72   1.385       .  A
C65         N718   1.346   1_545  A
C65          C73   1.386   1_545  A
C65          C76   1.405       .  A
C66          C74   1.387       .  A
C66          C77   1.411       .  A
C67        C1388   1.375       .  A
C67          H79   1.082       .  S
C68        C1387   1.375       .  A
C68          H80   1.082       .  S
C69        C1390   1.378       .  A
C69          H81   1.083       .  S
C70        C1389   1.378   1_455  A
C70          H82   1.082       .  S
C71         C732   1.376       .  A
C71          H83   1.082       .  S
C72         C731   1.376       .  A
C72          H84   1.082       .  S
C73         C734   1.374       .  A
C73          H85   1.082   1_565  S
C74         C733   1.374       .  A
C74          H86   1.082       .  S
C75         C510   1.483       .  S
C76         C521   1.475       .  S
C77         C550   1.482       .  S
C78         C570   1.470       .  S
O89         C100   1.303       .  A
O89        Eu785   2.525       .  S
O90         C101   1.307       .  A
O90        Eu124   2.550   1_455  S
O91         C102   1.277   1_554  A
O91         Eu97   2.412   1_455  S
O92         C103   1.281       .  A
O92       Eu1417   2.424       .  S
O93         C103   1.288       .  A
O93        Eu787   2.455       .  S
O94         C102   1.283       .  A
O94        Eu786   2.440   1_556  S
O95         C101   1.289       .  A
O95         Eu97   2.443   1_455  S
O96         C100   1.288       .  A
O96         Eu97   2.444   1_556  S
Eu97       O1412   2.424       .  S
Eu97         O99   2.345   1_654  S
Eu97        O105   2.351   1_655  S
Eu97       O1427   2.350   1_554  S
Eu97       O1418   2.346       .  S
O98       Eu1417   2.346       .  S
O98        Eu787   2.352       .  S
O98       Eu1444   2.391       .  S
O99        Eu785   2.380   1_455  S
O99        Eu786   2.344   1_556  S
C100        C401   1.491       .  S
C101        C221   1.509       .  S
C102        C270   1.498       .  S
C103        C281   1.488       .  S
H104        O105   0.962       .  S
O105       Eu124   2.383   1_455  S
O105       Eu786   2.350       .  S
H106        O107   0.963       .  S
O107      Eu1417   2.350   1_556  S
O107      Eu2105   2.381       .  S
O107       Eu787   2.341   1_556  S
O108        C131   1.306       .  A
O108       Eu784   2.553   1_455  S
O109        C132   1.306       .  A
O109       Eu125   2.545   1_545  S
O110        C133   1.291       .  A
O110       Eu786   2.460       .  S
O111        C134   1.285       .  A
O111       Eu787   2.420       .  S
O112        C135   1.287       .  A
O112       Eu127   2.435   1_556  S
O113        C136   1.288   1_565  A
O113       Eu126   2.437   1_556  S
O114        C137   1.283       .  A
O114       Eu128   2.430   1_455  S
O115        C138   1.284       .  A
O115      Eu1448   2.435       .  S
O116        C137   1.286   1_556  A
O116       Eu126   2.438   1_546  S
O117        C138   1.285       .  A
O117       Eu127   2.447   1_545  S
O118        C133   1.309       .  A
O118       Eu124   2.559   1_455  S
O119        C136   1.306   1_565  A
O119       Eu125   2.543   1_455  S
O120        C135   1.310       .  A
O120      Eu1445   2.562       .  S
O121        C134   1.308       .  A
O121      Eu1444   2.555       .  S
O122        C131   1.281   1_655  A
O122       Eu128   2.415       .  S
O123        C132   1.287       .  A
O123       Eu128   2.437   1_556  S
Eu124       O768   2.553   1_655  S
Eu124      O1441   2.555       .  S
Eu124      O1418   2.391       .  S
Eu124      O2122   2.386       .  S
Eu124       O790   2.371   1_655  S
Eu125       O749   2.525       .  S
Eu125      O1440   2.562       .  S
Eu125       O140   2.380   1_665  S
Eu125       O759   2.380   1_655  S
Eu125      O2087   2.381       .  S
Eu125      O1449   2.363   1_565  S
Eu126       O754   2.440   1_554  S
Eu126       O770   2.460       .  S
Eu126       O140   2.362   1_564  S
Eu126       O130   2.344   1_565  S
Eu126       O759   2.344   1_554  S
Eu126       O765   2.350       .  S
Eu127       O753   2.455       .  S
Eu127       O771   2.420       .  S
Eu127       O129   2.344   1_564  S
Eu127       O142   2.357   1_565  S
Eu127       O758   2.352       .  S
Eu127       O767   2.341   1_554  S
Eu128      O1435   2.435       .  S
Eu128       O140   2.340   1_654  S
Eu128       O130   2.347   1_655  S
Eu128      O1449   2.338   1_554  S
Eu128      O1462   2.339       .  S
O129      Eu1445   2.363   1_545  S
O129      Eu1448   2.338   1_556  S
O130       Eu784   2.371   1_455  S
C131        C241   1.526       .  S
C132        C381   1.513       .  S
C133        C181   1.516       .  S
C134        C210   1.515       .  S
C135        C350   1.513       .  S
C136        C361   1.505       .  S
C137        C330   1.481   1_554  S
C138        C310   1.494   1_554  S
H139        O140   0.966       .  S
H141        O142   0.968       .  S
O142      Eu2104   2.386       .  S
O142      Eu1448   2.339       .  S
N143        H175   1.037       .  S
N143        C148   1.352       .  A
N143        C147   1.353       .  A
N144        C151   1.349       .  A
N144        C152   1.348       .  A
N145        H176   1.038       .  S
N145        C150   1.352       .  A
N145        C149   1.350       .  A
N146        C153   1.346       .  A
N146        C154   1.348       .  A
C147        C155   1.388       .  A
C147        C163   1.415       .  A
C148        C164   1.413       .  A
C148        C156   1.387       .  A
C149        C157   1.388       .  A
C149        C166   1.410       .  A
C150        C165   1.411       .  A
C150        C158   1.387       .  A
C151        C163   1.410       .  A
C151        C159   1.387       .  A
C152        C166   1.407       .  A
C152        C160   1.386       .  A
C153        C161   1.386       .  A
C153        C164   1.406       .  A
C154        C162   1.387       .  A
C154        C165   1.406       .  A
C155        C156   1.370       .  A
C155        H167   1.082       .  S
C156        H168   1.082       .  S
C157        C158   1.370       .  A
C157        H169   1.082       .  S
C158        H170   1.082       .  S
C159        C160   1.368       .  A
C159        H171   1.082       .  S
C160        H172   1.083       .  S
C161        C162   1.369       .  A
C161        H173   1.083       .  S
C162        H174   1.082       .  S
C163        C301   1.483       .  S
C164        C321   1.476       .  S
C165        C261   1.476       .  S
C166        C290   1.476       .  S
C177        C230   1.632       .  S
C177        C250   1.623       .  S
C177        C590   1.636       .  S
C177       C1930   1.618   1_455  S
C178        C650   1.637   1_565  S
C178        C850   1.620       .  S
C178        C861   1.628       .  S
C178       C1281   1.621       .  S
C179        C390   1.634       .  S
C179        C410   1.618       .  S
C179        C430   1.625       .  S
C179       C1770   1.637       .  S
C180        C481   1.620       .  S
C180       C1001   1.627       .  S
C180       C1030   1.627       .  S
C180       C1121   1.627       .  S
C181        C182   1.419       .  A
C181        C846   1.415       .  A
C182        C183   1.419       .  A
C182       Br194   1.922       .  S
C183        C184   1.411       .  A
C183       Br198   1.930       .  S
C184        C187   1.522       .  S
C184        C845   1.418       .  A
C185        C186   1.425       .  A
C185        C844   1.418   1_545  A
C185       Br193   1.925       .  S
C186        C841   1.415   1_545  A
C186       Br197   1.926       .  S
C187        C192   1.410       .  A
C187        C848   1.398       .  A
C188        C189   1.417       .  A
C188        C847   1.398       .  A
C188       Br199   1.936       .  S
C189        C850   1.455       .  A
C189       Br195   1.930       .  S
C190        C191   1.455       .  A
C190        C849   1.455       .  A
C190        C838   1.620       .  S
C191        C192   1.432       .  A
C191       Br200   1.938       .  S
C192       Br196   1.933       .  S
C201        C202   1.466       .  A
C201        C866   1.455       .  A
C201        C838   1.628       .  S
C202        C203   1.414       .  A
C202       Br214   1.934       .  S
C203        C204   1.393       .  A
C203       Br218   1.942       .  S
C204        C207   1.502       .  S
C204        C865   1.400       .  A
C205        C206   1.418       .  A
C205        C864   1.400       .  A
C205       Br213   1.937       .  S
C206        C861   1.455   1_545  A
C206       Br217   1.930       .  S
C207        C208   1.418       .  A
C207        C872   1.400       .  A
C208        C209   1.425       .  A
C208       Br219   1.927       .  S
C209        C210   1.417       .  A
C209       Br215   1.924       .  S
C210        C871   1.424       .  A
C211        C212   1.400       .  A
C211        C870   1.424       .  A
C211       Br220   1.921       .  S
C212        C867   1.400       .  A
C212       Br216   1.936       .  S
C221        C226   1.413   1_455  A
C221       C1542   1.417       .  A
C222        C223   1.413       .  A
C222       C1541   1.417       .  A
C222       Br234   1.923       .  S
C223       C1544   1.412       .  A
C223       Br238   1.934       .  S
C224        C227   1.518       .  S
C224        C225   1.420   1_455  A
C224       C1543   1.412       .  A
C225        C226   1.424       .  A
C225       Br233   1.923       .  S
C226       Br237   1.925       .  S
C227        C232   1.403       .  A
C227       C1548   1.406   1_455  A
C228        C229   1.430       .  A
C228       C1547   1.406       .  A
C228       Br239   1.938       .  S
C229       C1550   1.452       .  A
C229       Br235   1.921       .  S
C230        C231   1.447       .  A
C230       C1549   1.452   1_455  A
C231        C232   1.420       .  A
C231       Br240   1.916       .  S
C232       Br236   1.935       .  S
C241        C246   1.422       .  A
C241       C1562   1.431       .  A
C242        C243   1.404       .  A
C242       C1561   1.431       .  A
C242       Br254   1.934       .  S
C243       C1564   1.403       .  A
C243       Br258   1.937       .  S
C244        C247   1.511       .  S
C244        C245   1.417       .  A
C244       C1563   1.403       .  A
C245        C246   1.426       .  A
C245       Br253   1.926       .  S
C246       Br257   1.928       .  S
C247        C248   1.407       .  A
C247       C1572   1.402   1_455  A
C248        C249   1.422       .  A
C248       Br259   1.939       .  S
C249        C250   1.443       .  A
C249       Br255   1.924       .  S
C250       C1571   1.457   1_455  A
C251        C252   1.423       .  A
C251       C1570   1.457       .  A
C251       Br260   1.940       .  S
C252       C1567   1.402       .  A
C252       Br256   1.942       .  S
C261        C262   1.407       .  A
C261        C266   1.409       .  A
C262        C263   1.402       .  A
C262       Br274   1.927       .  S
C263        C264   1.408       .  A
C263       Br278   1.931       .  S
C264        C267   1.468       .  S
C264        C265   1.406       .  A
C265        C266   1.398       .  A
C265       Br273   1.933   1_556  S
C266       Br277   1.931   1_556  S
C267        C268   1.400       .  A
C267        C272   1.398       .  A
C268        C269   1.403       .  A
C268       Br279   1.937       .  S
C269        C270   1.432       .  A
C269       Br275   1.943       .  S
C270        C271   1.436       .  A
C271        C272   1.403       .  A
C271       Br280   1.945       .  S
C272       Br276   1.939       .  S
C281        C282   1.426   1_554  A
C281        C286   1.419       .  A
C282        C283   1.404       .  A
C282       Br294   1.937       .  S
C283        C284   1.403       .  A
C283       Br298   1.937       .  S
C284        C287   1.471       .  S
C284        C285   1.403   1_556  A
C285        C286   1.403       .  A
C285       Br293   1.931       .  S
C286       Br297   1.935       .  S
C287        C288   1.410       .  A
C287        C292   1.407       .  A
C288        C289   1.402       .  A
C288       Br299   1.929       .  S
C289        C290   1.406       .  A
C289       Br295   1.929       .  S
C290        C291   1.409       .  A
C291        C292   1.400       .  A
C291       Br300   1.931   1_556  S
C292       Br296   1.931   1_556  S
C301        C302   1.408       .  A
C301        C306   1.412       .  A
C302        C303   1.404       .  A
C302       Br314   1.929       .  S
C303        C304   1.410       .  A
C303       Br318   1.931       .  S
C304        C307   1.476       .  S
C304        C305   1.407       .  A
C305        C306   1.402       .  A
C305       Br313   1.930   1_556  S
C306       Br317   1.932   1_556  S
C307        C308   1.402       .  A
C307        C312   1.403       .  A
C308        C309   1.403       .  A
C308       Br319   1.933       .  S
C309        C310   1.424       .  A
C309       Br315   1.933       .  S
C310        C311   1.424   1_556  A
C311        C312   1.406   1_554  A
C311       Br320   1.935       .  S
C312       Br316   1.932   1_556  S
C321        C322   1.411       .  A
C321        C326   1.405       .  A
C322        C323   1.401       .  A
C322       Br334   1.931   1_556  S
C323        C324   1.405       .  A
C323       Br338   1.931   1_556  S
C324        C327   1.469       .  S
C324        C325   1.409       .  A
C325        C326   1.400       .  A
C325       Br333   1.930       .  S
C326       Br337   1.929       .  S
C327        C328   1.404   1_556  A
C327        C332   1.400       .  A
C328        C329   1.405       .  A
C328       Br339   1.931       .  S
C329        C330   1.420   1_554  A
C329       Br335   1.935       .  S
C330        C331   1.422       .  A
C331        C332   1.398       .  A
C331       Br340   1.935       .  S
C332       Br336   1.934       .  S
C341        C342   1.446   1_565  A
C341       C1006   1.448       .  A
C341        C840   1.627   1_565  S
C342        C343   1.433       .  A
C342       Br354   1.923       .  S
C343        C344   1.411   1_545  A
C343       Br358   1.927       .  S
C344        C347   1.522       .  S
C344       C1005   1.402       .  A
C345        C346   1.416       .  A
C345       C1004   1.402       .  A
C345       Br353   1.934       .  S
C346       C1001   1.448       .  A
C346       Br357   1.930       .  S
C347        C348   1.420   1_565  A
C347        C352   1.412       .  A
C348        C349   1.424       .  A
C348       Br359   1.920       .  S
C349        C350   1.413   1_545  A
C349       Br355   1.929       .  S
C350        C351   1.420       .  A
C351        C352   1.416       .  A
C351       Br360   1.923       .  S
C352      Br1016   1.935       .  S
Br356      C1012   1.935       .  S
C361        C362   1.416       .  A
C361       C1026   1.413   1_545  A
C362        C363   1.409       .  A
C362       Br374   1.923       .  S
C363        C364   1.408   1_545  A
C363       Br378   1.933       .  S
C364        C367   1.512       .  S
C364       C1025   1.420       .  A
C365        C366   1.423       .  A
C365       C1024   1.420       .  A
C365       Br373   1.922       .  S
C366       C1021   1.413       .  A
C366       Br377   1.925       .  S
C367        C368   1.401   1_565  A
C367       C1032   1.406       .  A
C368        C369   1.417       .  A
C368       Br379   1.937       .  S
C369        C370   1.449       .  A
C369       Br375   1.927       .  S
C370       C1031   1.449   1_545  A
C370        C840   1.627       .  S
C371        C372   1.429       .  A
C371       C1030   1.449       .  A
C371       Br380   1.919       .  S
C372       C1027   1.406       .  A
C372       Br376   1.934       .  S
C381        C382   1.420       .  A
C381       C1706   1.416   1_655  A
C382        C383   1.407       .  A
C382       Br394   1.913       .  S
C383        C384   1.403       .  A
C383       Br398   1.936       .  S
C384        C387   1.508       .  S
C384       C1705   1.418   1_655  A
C385        C386   1.424       .  A
C385       C1704   1.418       .  A
C385       Br393   1.927       .  S
C386       C1701   1.416       .  A
C386       Br397   1.926       .  S
C387        C392   1.398   1_655  A
C387       C1708   1.396       .  A
C388        C389   1.420       .  A
C388       C1707   1.396       .  A
C388       Br399   1.951       .  S
C389        C390   1.471       .  A
C389       Br395   1.946       .  S
C390       C1711   1.455       .  A
C391        C392   1.424       .  A
C391       C1710   1.455   1_455  A
C391       Br400   1.930       .  S
C392       Br396   1.937       .  S
C401        C406   1.412   1_655  A
C401       C1722   1.410       .  A
C402        C403   1.415       .  A
C402       C1721   1.410       .  A
C402       Br414   1.928       .  S
C403       C1724   1.415       .  A
C403       Br418   1.929       .  S
C404        C407   1.508       .  S
C404        C405   1.413       .  A
C404       C1723   1.415   1_455  A
C405        C406   1.414       .  A
C405       Br413   1.928       .  S
C406       Br417   1.925       .  S
C407        C412   1.395   1_455  A
C407       C1728   1.406       .  A
C408        C409   1.430       .  A
C408       C1727   1.406       .  A
C408       Br419   1.938       .  S
C409        C410   1.457       .  A
C409       Br415   1.940       .  S
C410       C1731   1.459       .  A
C411        C412   1.415       .  A
C411       C1730   1.459       .  A
C411       Br420   1.938   1_655  S
C412       Br416   1.944       .  S
C421        C422   1.422       .  A
C421        C426   1.413       .  A
C422        C423   1.419       .  A
C422       Br434   1.932       .  S
C423        C424   1.412       .  A
C423       Br438   1.931       .  S
C424        C427   1.522       .  S
C424        C425   1.421       .  A
C425        C426   1.422       .  A
C425       Br433   1.927       .  S
C426       Br437   1.929       .  S
C427        C428   1.412       .  A
C427        C432   1.395       .  A
C428        C429   1.436       .  A
C428       Br439   1.933       .  S
C429        C430   1.455       .  A
C429       Br435   1.931       .  S
C430        C431   1.456       .  A
C431        C432   1.414       .  A
C431       Br440   1.926       .  S
C432       Br436   1.939       .  S
C441        C442   1.440       .  A
C441        C446   1.422       .  A
C442        C443   1.410       .  A
C442       Br454   1.932       .  S
C443        C444   1.398       .  A
C443       Br458   1.940       .  S
C444        C447   1.504       .  S
C444        C445   1.413       .  A
C445        C446   1.422       .  A
C445       Br453   1.929       .  S
C446       Br457   1.928       .  S
C447        C448   1.390       .  A
C447        C452   1.401       .  A
C448        C449   1.409       .  A
C448       Br459   1.943       .  S
C449        C450   1.469       .  A
C449       Br455   1.950       .  S
C450        C451   1.458       .  A
C450       C1499   1.637   1_455  S
C451        C452   1.428       .  A
C451       Br460   1.932       .  S
C452       Br456   1.937       .  S
C461        C462   1.444       .  A
C461        C466   1.447       .  A
C461        C840   1.627       .  S
C462        C463   1.429       .  A
C462       Br474   1.920       .  S
C463        C464   1.409       .  A
C463       Br478   1.931       .  S
C464        C467   1.512       .  S
C464        C465   1.399       .  A
C465        C466   1.415       .  A
C465       Br473   1.938       .  S
C466       Br477   1.924       .  S
C467        C468   1.404       .  A
C467        C472   1.414       .  A
C468        C469   1.413       .  A
C468       Br479   1.942       .  S
C469        C470   1.441       .  A
C469       Br475   1.943       .  S
C470        C471   1.423       .  A
C471        C472   1.425       .  A
C471       Br480   1.926       .  S
C472       Br476   1.927       .  S
C481        C482   1.445       .  A
C481        C486   1.442       .  A
C482        C483   1.412       .  A
C482       Br494   1.928       .  S
C483        C484   1.398       .  A
C483       Br498   1.936       .  S
C484        C487   1.509       .  S
C484        C485   1.409       .  A
C485        C486   1.428       .  A
C485       Br493   1.931       .  S
C486       Br497   1.918       .  S
C487        C488   1.413       .  A
C487        C492   1.405       .  A
C488        C489   1.421       .  A
C488       Br499   1.925       .  S
C489        C490   1.423       .  A
C489       Br495   1.932       .  S
C490        C491   1.435       .  A
C491        C492   1.412       .  A
C491       Br500   1.940       .  S
C492       Br496   1.939       .  S
C501        C502   1.408       .  A
C501        C506   1.405       .  A
C502        C503   1.405       .  A
C502       Br514   1.926       .  S
C503        C504   1.411       .  A
C503       Br518   1.929       .  S
C504        C507   1.478       .  S
C504        C505   1.410       .  A
C505        C506   1.400       .  A
C505       Br513   1.932       .  S
C506       Br517   1.926       .  S
C507        C508   1.410       .  A
C507        C512   1.411       .  A
C508        C509   1.400       .  A
C508       Br519   1.933       .  S
C509        C510   1.412       .  A
C509       Br515   1.934       .  S
C510        C511   1.410       .  A
C511        C512   1.403       .  A
C511       Br520   1.930       .  S
C512       Br516   1.931       .  S
C521        C522   1.407       .  A
C521        C526   1.409       .  A
C522        C523   1.402       .  A
C522       Br534   1.929       .  S
C523        C524   1.408       .  A
C523       Br538   1.928       .  S
C524        C527   1.472       .  S
C524        C525   1.407       .  A
C525        C526   1.401       .  A
C525       Br533   1.931       .  S
C526       Br537   1.932       .  S
C527        C528   1.401       .  A
C527        C532   1.399       .  A
C528        C529   1.403       .  A
C528       Br539   1.939       .  S
C529        C530   1.430       .  A
C529       Br535   1.939       .  S
C530        C531   1.432       .  A
C531        C532   1.408       .  A
C531       Br540   1.933       .  S
C532       Br536   1.935       .  S
C541        C542   1.408       .  A
C541        C546   1.409       .  A
C542        C543   1.402       .  A
C542       Br554   1.930       .  S
C543        C544   1.408       .  A
C543       Br558   1.931       .  S
C544        C547   1.477       .  S
C544        C545   1.408       .  A
C545        C546   1.406       .  A
C545       Br553   1.930       .  S
C546       Br557   1.924       .  S
C547        C548   1.409       .  A
C547        C552   1.408       .  A
C548        C549   1.405       .  A
C548       Br559   1.931       .  S
C549        C550   1.412       .  A
C549       Br555   1.931       .  S
C550        C551   1.409       .  A
C551        C552   1.400       .  A
C551       Br560   1.932       .  S
C552       Br556   1.930       .  S
C561        C562   1.410       .  A
C561        C566   1.412       .  A
C562        C563   1.400       .  A
C562       Br574   1.925       .  S
C563        C564   1.405       .  A
C563       Br578   1.931       .  S
C564        C567   1.471       .  S
C564        C565   1.407       .  A
C565        C566   1.404       .  A
C565       Br573   1.931       .  S
C566       Br577   1.928       .  S
C567        C568   1.409       .  A
C567        C572   1.410       .  A
C568        C569   1.397       .  A
C568       Br579   1.931       .  S
C569        C570   1.405       .  A
C569       Br575   1.932       .  S
C570        C571   1.407       .  A
C571        C572   1.404       .  A
C571       Br580   1.929       .  S
C572       Br576   1.929       .  S
C581        C582   1.418       .  A
C581        C586   1.413       .  A
C582        C583   1.414       .  A
C582       Br594   1.934       .  S
C583        C584   1.413       .  A
C583       Br598   1.932       .  S
C584        C587   1.518       .  S
C584        C585   1.419       .  A
C585        C586   1.422       .  A
C585       Br593   1.920       .  S
C586       Br597   1.930       .  S
C587        C588   1.399       .  A
C587        C592   1.411       .  A
C588        C589   1.412       .  A
C588       Br599   1.935       .  S
C589        C590   1.447       .  A
C589       Br595   1.934       .  S
C590        C591   1.448       .  A
C591        C592   1.435       .  A
C591       Br600   1.922       .  S
C592       Br596   1.927       .  S
C601        C602   1.425       .  A
C601        C606   1.448       .  A
C602        C603   1.423       .  A
C602       Br614   1.930       .  S
C603        C604   1.413       .  A
C603       Br618   1.928       .  S
C604        C607   1.511       .  S
C604        C605   1.403       .  A
C605        C606   1.413       .  A
C605       Br613   1.943       .  S
C606       Br617   1.952       .  S
C607        C608   1.410       .  A
C607        C612   1.400       .  A
C608        C609   1.426       .  A
C608       Br619   1.934       .  S
C609        C610   1.443       .  A
C609       Br615   1.916       .  S
C610        C611   1.448       .  A
C610       C1497   1.618       .  S
C611        C612   1.415       .  A
C611       Br620   1.927       .  S
C612       Br616   1.939       .  S
C621        C622   1.455       .  A
C621        C626   1.460       .  A
C621        C838   1.621       .  S
C622        C623   1.427       .  A
C622       Br634   1.939       .  S
C623        C624   1.405       .  A
C623       Br638   1.935       .  S
C624        C627   1.507       .  S
C624        C625   1.393       .  A
C625        C626   1.414       .  A
C625       Br633   1.939       .  S
C626       Br637   1.932       .  S
C627        C628   1.417       .  A
C627        C632   1.408       .  A
C628        C629   1.416       .  A
C628       Br639   1.921       .  S
C629        C630   1.410       .  A
C629       Br635   1.931       .  S
C630        C631   1.420       .  A
C631        C632   1.412       .  A
C631       Br640   1.925       .  S
C632       Br636   1.933       .  S
C641        C642   1.416       .  A
C641        C646   1.413       .  A
C642        C643   1.408       .  A
C642       Br654   1.925       .  S
C643        C644   1.408       .  A
C643       Br658   1.932       .  S
C644        C647   1.512       .  S
C644        C645   1.419       .  A
C645        C646   1.424       .  A
C645       Br653   1.926       .  S
C646       Br657   1.925       .  S
C647        C648   1.400       .  A
C647        C652   1.397       .  A
C648        C649   1.427       .  A
C648       Br659   1.937       .  S
C649        C650   1.458       .  A
C649       Br655   1.938       .  S
C650        C651   1.471       .  A
C651        C652   1.422       .  A
C651       Br660   1.947       .  S
C652       Br656   1.956       .  S
O661        C672   1.307       .  A
O661       Eu697   2.547       .  S
O662        C673   1.312       .  A
O662       Eu696   2.578       .  S
O663        C674   1.289       .  A
O663       Eu669   2.457       .  S
O664        C675   1.284       .  A
O664       Eu669   2.446       .  S
O665        C675   1.284       .  A
O665       Eu699   2.442       .  S
O666        C674   1.285       .  A
O666       Eu698   2.440       .  S
O667        C673   1.278       .  A
O667       Eu669   2.402       .  S
O668        C672   1.288       .  A
O668       Eu669   2.435       .  S
Eu669       O679   2.354       .  S
Eu669       O671   2.339       .  S
Eu669       O670   2.342       .  S
Eu669       O677   2.352       .  S
O670       Eu699   2.337       .  S
O670       Eu696   2.369       .  S
O671       Eu697   2.377       .  S
O671       Eu698   2.353       .  S
C672       C1301   1.505       .  S
C673       C1130   1.530       .  S
C674       C1161   1.467       .  S
C675       C1190   1.505       .  S
H676        O677   0.961       .  S
O677       Eu698   2.349       .  S
O677       Eu696   2.379       .  S
H678        O679   0.965       .  S
O679       Eu697   2.384       .  S
O679       Eu699   2.343       .  S
O680        C703   1.305       .  A
O680       Eu696   2.538       .  S
O681        C704   1.306       .  A
O681       Eu697   2.539       .  S
O682        C705   1.286       .  A
O682       Eu698   2.429       .  S
O683        C706   1.281       .  A
O683       Eu699   2.420       .  S
O684        C707   1.286       .  A
O684       Eu699   2.425       .  S
O685        C708   1.274       .  A
O685       Eu698   2.403       .  S
O686        C709   1.284       .  A
O686       Eu700   2.433       .  S
O687        C710   1.288       .  A
O687       Eu700   2.455       .  S
O688        C709   1.289       .  A
O688       Eu698   2.454       .  S
O689        C710   1.284       .  A
O689       Eu699   2.439       .  S
O690        C705   1.310       .  A
O690       Eu696   2.562       .  S
O691        C708   1.307       .  A
O691       Eu697   2.559       .  S
O692        C707   1.306       .  A
O692       Eu697   2.542       .  S
O693        C706   1.309       .  A
O693       Eu696   2.564       .  S
O694        C703   1.283       .  A
O694       Eu700   2.428       .  S
O695        C704   1.284       .  A
O695       Eu700   2.417       .  S
Eu696       O714   2.381       .  S
Eu696       O702   2.381       .  S
Eu697       O701   2.375       .  S
Eu697       O712   2.385       .  S
Eu698       O712   2.348       .  S
Eu698       O702   2.339       .  S
Eu699       O701   2.338       .  S
Eu699       O714   2.349       .  S
Eu700       O701   2.345       .  S
Eu700       O712   2.353       .  S
Eu700       O714   2.337       .  S
Eu700       O702   2.351       .  S
C703       C1150   1.520       .  S
C704       C1290   1.496       .  S
C705       C1081   1.512       .  S
C706       C1101   1.527       .  S
C707       C1241   1.504       .  S
C708       C1261   1.534       .  S
C709       C1221   1.472       .  S
C710       C1201   1.472       .  S
H711        O712   0.968       .  S
H713        O714   0.966       .  S
N715        H747   1.041       .  S
N715       C2040   1.349       .  A
N715        C719   1.351       .  A
N716        C724   1.345   1_545  A
N717        H748   1.041       .  S
N717       C2042   1.348       .  A
N717        C721   1.346       .  A
N718        C726   1.348       .  A
C719        C727   1.386       .  A
C719        C735   1.410       .  A
C720       N2035   1.349       .  A
C720        C736   1.411       .  A
C720        C728   1.388       .  A
C721        C729   1.387       .  A
C721        C738   1.405       .  A
C722       N2037   1.348   1_455  A
C722        C737   1.407       .  A
C722        C730   1.387       .  A
C723        C735   1.405       .  A
C723        C731   1.387       .  A
C724        C738   1.403       .  A
C724        C732   1.385   1_565  A
C725        C733   1.386       .  A
C725        C736   1.405       .  A
C726        C734   1.387       .  A
C726        C737   1.411       .  A
C727       C2048   1.375       .  A
C727        H739   1.082       .  S
C728       C2047   1.375       .  A
C728        H740   1.082       .  S
C729       C2050   1.378       .  A
C729        H741   1.083       .  S
C730       C2049   1.378   1_455  A
C730        H742   1.082       .  S
C731        H743   1.082       .  S
C732        H744   1.082   1_545  S
C733        H745   1.082       .  S
C734        H746   1.082       .  S
C735       C1170   1.483       .  S
C736       C1181   1.475       .  S
C737       C1210   1.483       .  S
C738       C1230   1.470       .  S
O749        C760   1.303       .  A
O750        C761   1.307       .  A
O750       Eu784   2.550   1_465  S
O751        C762   1.277   1_554  A
O751       Eu757   2.412   1_455  S
O752        C763   1.281       .  A
O752      Eu2077   2.424       .  S
O753        C763   1.288       .  A
O754        C762   1.283       .  A
O755        C761   1.289       .  A
O755       Eu757   2.443   1_455  S
O756        C760   1.288       .  A
O756       Eu757   2.444   1_556  S
Eu757      O2072   2.424       .  S
Eu757      O2087   2.350   1_554  S
Eu757       O759   2.345   1_654  S
Eu757      O2078   2.346       .  S
Eu757       O765   2.350   1_655  S
O758      Eu2077   2.346       .  S
O758      Eu2104   2.391   1_565  S
C760       C1061   1.491       .  S
C761        C881   1.509       .  S
C762        C930   1.498       .  S
C763        C941   1.488       .  S
H764        O765   0.962       .  S
O765       Eu784   2.383   1_465  S
H766        O767   0.964       .  S
O767      Eu2077   2.350   1_556  S
O767      Eu1445   2.381       .  S
O768        C791   1.306       .  A
O769        C792   1.306       .  A
O769       Eu785   2.545       .  S
O770        C793   1.291       .  A
O771        C794   1.285   1_565  A
O772        C795   1.287       .  A
O772       Eu787   2.435   1_556  S
O773        C796   1.288       .  A
O773       Eu786   2.437   1_556  S
O774        C797   1.283       .  A
O774       Eu788   2.430   1_455  S
O775        C798   1.284       .  A
O775      Eu2108   2.435       .  S
O776        C797   1.286   1_556  A
O776       Eu786   2.438   1_556  S
O777        C798   1.285       .  A
O777       Eu787   2.447       .  S
O778        C793   1.309   1_545  A
O778       Eu784   2.559   1_455  S
O779        C796   1.306       .  A
O779       Eu785   2.543   1_455  S
O780        C795   1.310       .  A
O780      Eu2105   2.562       .  S
O781        C794   1.308       .  A
O781      Eu2104   2.555       .  S
O782        C791   1.281   1_655  A
O782       Eu788   2.415       .  S
O783        C792   1.287       .  A
O783       Eu788   2.437   1_556  S
Eu784      O2101   2.555       .  S
Eu784      O2078   2.391   1_545  S
Eu784      O1462   2.386       .  S
Eu785      O2100   2.562       .  S
Eu785      O1427   2.381       .  S
Eu785      O2109   2.363       .  S
Eu785       O800   2.380   1_655  S
Eu786       O800   2.362   1_554  S
Eu786       O790   2.344       .  S
Eu787       O789   2.344   1_554  S
Eu787       O802   2.357       .  S
Eu788      O2095   2.435       .  S
Eu788      O2109   2.338   1_554  S
Eu788       O800   2.340   1_654  S
Eu788      O2122   2.339       .  S
Eu788       O790   2.347   1_655  S
O789      Eu2105   2.363       .  S
O789      Eu2108   2.338   1_556  S
C791        C901   1.526       .  S
C792       C1041   1.513       .  S
C793        C841   1.516       .  S
C794        C870   1.515       .  S
C795       C1010   1.513       .  S
C796       C1021   1.505       .  S
C797        C990   1.481   1_554  S
C798        C970   1.495   1_554  S
H799        O800   0.966       .  S
H801        O802   0.968       .  S
O802      Eu1444   2.386       .  S
O802      Eu2108   2.339       .  S
N803        H835   1.037       .  S
N803        C808   1.352       .  A
N803        C807   1.353       .  A
N804        C811   1.349       .  A
N804        C812   1.348       .  A
N805        H836   1.038       .  S
N805        C810   1.352       .  A
N805        C809   1.350       .  A
N806        C813   1.346       .  A
N806        C814   1.348       .  A
C807        C815   1.388       .  A
C807        C823   1.415       .  A
C808        C824   1.413       .  A
C808        C816   1.387       .  A
C809        C817   1.388       .  A
C809        C826   1.410       .  A
C810        C825   1.411       .  A
C810        C818   1.387       .  A
C811        C823   1.410       .  A
C811        C819   1.387       .  A
C812        C826   1.407       .  A
C812        C820   1.386       .  A
C813        C821   1.386       .  A
C813        C824   1.406       .  A
C814        C822   1.387       .  A
C814        C825   1.406       .  A
C815        C816   1.370       .  A
C815        H827   1.082       .  S
C816        H828   1.082       .  S
C817        C818   1.370       .  A
C817        H829   1.082       .  S
C818        H830   1.082       .  S
C819        C820   1.368       .  A
C819        H831   1.082       .  S
C820        H832   1.083       .  S
C821        C822   1.369       .  A
C821        H833   1.083       .  S
C822        H834   1.082       .  S
C823        C961   1.483       .  S
C824        C981   1.477       .  S
C825        C921   1.476       .  S
C826        C950   1.476       .  S
C837        C890   1.632       .  S
C837        C910   1.623       .  S
C837       C1250   1.636       .  S
C837       C2590   1.618   1_455  S
C838       C1310   1.637       .  S
C839       C1050   1.634       .  S
C839       C1070   1.618       .  S
C839       C1090   1.625       .  S
C839       C2430   1.637       .  S
C840       C1141   1.620   1_545  S
C841        C842   1.419       .  A
C842        C843   1.419       .  A
C842       Br854   1.922       .  S
C843        C844   1.411       .  A
C843       Br858   1.930       .  S
C844        C847   1.522       .  S
C845        C846   1.425       .  A
C845       Br853   1.925       .  S
C846       Br857   1.926       .  S
C847        C852   1.410   1_565  A
C848        C849   1.417       .  A
C848       Br859   1.936       .  S
C849       Br855   1.930       .  S
C850        C851   1.455   1_565  A
C851        C852   1.432       .  A
C851       Br860   1.938       .  S
C852       Br856   1.933       .  S
C861        C862   1.466       .  A
C862        C863   1.414       .  A
C862       Br874   1.934       .  S
C863        C864   1.393   1_565  A
C863       Br878   1.942       .  S
C864        C867   1.502       .  S
C865        C866   1.418       .  A
C865       Br873   1.937       .  S
C866       Br877   1.930       .  S
C867        C868   1.418   1_545  A
C868        C869   1.425       .  A
C868       Br879   1.927       .  S
C869        C870   1.417   1_565  A
C869       Br875   1.924       .  S
C871        C872   1.400       .  A
C871       Br880   1.921       .  S
C872       Br876   1.936       .  S
C881       C2202   1.417       .  A
C881        C886   1.413   1_455  A
C882       C2201   1.417       .  A
C882        C883   1.413       .  A
C882       Br894   1.923       .  S
C883       C2204   1.412       .  A
C883       Br898   1.934       .  S
C884        C887   1.518       .  S
C884       C2203   1.412       .  A
C884        C885   1.420   1_455  A
C885        C886   1.424       .  A
C885       Br893   1.923       .  S
C886       Br897   1.925       .  S
C887       C2208   1.406   1_455  A
C887        C892   1.403       .  A
C888       C2207   1.406       .  A
C888        C889   1.430       .  A
C888       Br899   1.938       .  S
C889       C2210   1.452       .  A
C889       Br895   1.921       .  S
C890       C2209   1.452   1_455  A
C890        C891   1.447       .  A
C891        C892   1.420       .  A
C891       Br900   1.916       .  S
C892       Br896   1.936       .  S
C901       C2222   1.431       .  A
C901        C906   1.422       .  A
C902       C2221   1.431       .  A
C902        C903   1.404       .  A
C902       Br914   1.934       .  S
C903       C2224   1.403       .  A
C903       Br918   1.937       .  S
C904        C907   1.511       .  S
C904       C2223   1.403       .  A
C904        C905   1.417       .  A
C905        C906   1.426       .  A
C905       Br913   1.926       .  S
C906       Br917   1.928       .  S
C907        C908   1.407       .  A
C907       C2232   1.402   1_455  A
C908        C909   1.422       .  A
C908       Br919   1.939       .  S
C909        C910   1.443       .  A
C909       Br915   1.924       .  S
C910       C2231   1.457   1_455  A
C911       C2230   1.457       .  A
C911        C912   1.423       .  A
C911       Br920   1.940       .  S
C912       C2227   1.402       .  A
C912       Br916   1.942       .  S
C921        C922   1.407       .  A
C921        C926   1.409       .  A
C922        C923   1.402       .  A
C922       Br934   1.927       .  S
C923        C924   1.408       .  A
C923       Br938   1.931       .  S
C924        C927   1.468       .  S
C924        C925   1.406       .  A
C925        C926   1.398       .  A
C925       Br933   1.933   1_556  S
C926       Br937   1.931   1_556  S
C927        C928   1.400       .  A
C927        C932   1.398       .  A
C928        C929   1.403       .  A
C928       Br939   1.937       .  S
C929        C930   1.432       .  A
C929       Br935   1.943       .  S
C930        C931   1.436       .  A
C931        C932   1.403       .  A
C931       Br940   1.945       .  S
C932       Br936   1.939       .  S
C941        C942   1.426   1_554  A
C941        C946   1.419       .  A
C942        C943   1.404       .  A
C942       Br954   1.937       .  S
C943        C944   1.403       .  A
C943       Br958   1.937       .  S
C944        C947   1.471       .  S
C944        C945   1.403   1_556  A
C945        C946   1.403       .  A
C945       Br953   1.931       .  S
C946       Br957   1.935       .  S
C947        C948   1.410       .  A
C947        C952   1.407       .  A
C948        C949   1.402       .  A
C948       Br959   1.929       .  S
C949        C950   1.406       .  A
C949       Br955   1.929       .  S
C950        C951   1.409       .  A
C951        C952   1.400       .  A
C951       Br960   1.931   1_556  S
C952       Br956   1.931   1_556  S
C961        C962   1.408       .  A
C961        C966   1.412       .  A
C962        C963   1.404       .  A
C962       Br974   1.929       .  S
C963        C964   1.410       .  A
C963       Br978   1.931       .  S
C964        C967   1.476       .  S
C964        C965   1.407       .  A
C965        C966   1.402       .  A
C965       Br973   1.930   1_556  S
C966       Br977   1.932   1_556  S
C967        C968   1.402       .  A
C967        C972   1.403       .  A
C968        C969   1.403       .  A
C968       Br979   1.933       .  S
C969        C970   1.424       .  A
C969       Br975   1.933       .  S
C970        C971   1.424   1_556  A
C971        C972   1.406   1_554  A
C971       Br980   1.935       .  S
C972       Br976   1.932   1_556  S
C981        C982   1.411       .  A
C981        C986   1.405       .  A
C982        C983   1.401       .  A
C982       Br994   1.931   1_556  S
C983        C984   1.405       .  A
C983       Br998   1.931   1_556  S
C984        C987   1.469       .  S
C984        C985   1.409       .  A
C985        C986   1.400       .  A
C985       Br993   1.930       .  S
C986       Br997   1.929       .  S
C987        C988   1.404   1_556  A
C987        C992   1.400       .  A
C988        C989   1.405       .  A
C988       Br999   1.931       .  S
C989        C990   1.420   1_554  A
C989       Br995   1.935       .  S
C990        C991   1.422       .  A
C991        C992   1.398       .  A
C991      Br1000   1.935       .  S
C992       Br996   1.934       .  S
C1001      C1002   1.446       .  A
C1002      C1003   1.433       .  A
C1002     Br1014   1.923       .  S
C1003      C1004   1.411       .  A
C1003     Br1018   1.927       .  S
C1004      C1007   1.522       .  S
C1005      C1006   1.416       .  A
C1005     Br1013   1.934       .  S
C1006     Br1017   1.930       .  S
C1007      C1008   1.420       .  A
C1007      C1012   1.412       .  A
C1008      C1009   1.424       .  A
C1008     Br1019   1.920       .  S
C1009      C1010   1.413       .  A
C1009     Br1015   1.929       .  S
C1010      C1011   1.420       .  A
C1011      C1012   1.416       .  A
C1011     Br1020   1.923       .  S
C1021      C1022   1.416       .  A
C1022      C1023   1.409       .  A
C1022     Br1034   1.923       .  S
C1023      C1024   1.408       .  A
C1023     Br1038   1.933       .  S
C1024      C1027   1.512       .  S
C1025      C1026   1.423       .  A
C1025     Br1033   1.922       .  S
C1026     Br1037   1.925       .  S
C1027      C1028   1.401       .  A
C1028      C1029   1.417       .  A
C1028     Br1039   1.937       .  S
C1029      C1030   1.449       .  A
C1029     Br1035   1.927       .  S
C1031      C1032   1.429       .  A
C1031     Br1040   1.919       .  S
C1032     Br1036   1.934       .  S
C1041      C1042   1.420       .  A
C1041      C2366   1.416   1_655  A
C1042      C1043   1.407       .  A
C1042     Br1054   1.913       .  S
C1043      C1044   1.403       .  A
C1043     Br1058   1.936       .  S
C1044      C1047   1.508       .  S
C1044      C2365   1.418   1_655  A
C1045      C2364   1.418       .  A
C1045      C1046   1.424       .  A
C1045     Br1053   1.927       .  S
C1046      C2361   1.416       .  A
C1046     Br1057   1.926       .  S
C1047      C2368   1.396       .  A
C1047      C1052   1.398   1_655  A
C1048      C2367   1.396       .  A
C1048      C1049   1.420       .  A
C1048     Br1059   1.951       .  S
C1049      C1050   1.471       .  A
C1049     Br1055   1.946       .  S
C1050      C2371   1.455       .  A
C1051      C2370   1.455   1_455  A
C1051      C1052   1.424       .  A
C1051     Br1060   1.930       .  S
C1052     Br1056   1.937       .  S
C1061      C2382   1.410       .  A
C1061      C1066   1.412   1_655  A
C1062      C2381   1.410       .  A
C1062      C1063   1.415       .  A
C1062     Br1074   1.928       .  S
C1063      C2384   1.415       .  A
C1063     Br1078   1.929       .  S
C1064      C1067   1.508       .  S
C1064      C2383   1.415   1_455  A
C1064      C1065   1.413       .  A
C1065      C1066   1.414       .  A
C1065     Br1073   1.928       .  S
C1066     Br1077   1.925       .  S
C1067      C2388   1.406       .  A
C1067      C1072   1.395   1_455  A
C1068      C2387   1.406       .  A
C1068      C1069   1.430       .  A
C1068     Br1079   1.938       .  S
C1069      C1070   1.457       .  A
C1069     Br1075   1.940       .  S
C1070      C2391   1.459       .  A
C1071      C2390   1.459       .  A
C1071      C1072   1.415       .  A
C1071     Br1080   1.938   1_655  S
C1072     Br1076   1.944       .  S
C1081      C1082   1.422       .  A
C1081      C1086   1.413       .  A
C1082      C1083   1.419       .  A
C1082     Br1094   1.932       .  S
C1083      C1084   1.412       .  A
C1083     Br1098   1.931       .  S
C1084      C1087   1.522       .  S
C1084      C1085   1.421       .  A
C1085      C1086   1.422       .  A
C1085     Br1093   1.927       .  S
C1086     Br1097   1.929       .  S
C1087      C1088   1.412       .  A
C1087      C1092   1.395       .  A
C1088      C1089   1.436       .  A
C1088     Br1099   1.933       .  S
C1089      C1090   1.455       .  A
C1089     Br1095   1.931       .  S
C1090      C1091   1.456       .  A
C1091      C1092   1.414       .  A
C1091     Br1100   1.926       .  S
C1092     Br1096   1.939       .  S
C1101      C1102   1.440       .  A
C1101      C1106   1.422       .  A
C1102      C1103   1.410       .  A
C1102     Br1114   1.932       .  S
C1103      C1104   1.398       .  A
C1103     Br1118   1.940       .  S
C1104      C1107   1.503       .  S
C1104      C1105   1.413       .  A
C1105      C1106   1.422       .  A
C1105     Br1113   1.929       .  S
C1106     Br1117   1.928       .  S
C1107      C1108   1.390       .  A
C1107      C1112   1.401       .  A
C1108      C1109   1.409       .  A
C1108     Br1119   1.943       .  S
C1109      C1110   1.469       .  A
C1109     Br1115   1.950       .  S
C1110      C1111   1.458       .  A
C1110      C2159   1.637   1_455  S
C1111      C1112   1.428       .  A
C1111     Br1120   1.932       .  S
C1112     Br1116   1.937       .  S
C1121      C1122   1.444       .  A
C1121      C1126   1.447       .  A
C1122      C1123   1.429       .  A
C1122     Br1134   1.920       .  S
C1123      C1124   1.409       .  A
C1123     Br1138   1.931       .  S
C1124      C1127   1.512       .  S
C1124      C1125   1.399       .  A
C1125      C1126   1.415       .  A
C1125     Br1133   1.939       .  S
C1126     Br1137   1.924       .  S
C1127      C1128   1.404       .  A
C1127      C1132   1.414       .  A
C1128      C1129   1.413       .  A
C1128     Br1139   1.942       .  S
C1129      C1130   1.441       .  A
C1129     Br1135   1.943       .  S
C1130      C1131   1.423       .  A
C1131      C1132   1.425       .  A
C1131     Br1140   1.926       .  S
C1132     Br1136   1.927       .  S
C1141      C1142   1.445       .  A
C1141      C1146   1.442       .  A
C1142      C1143   1.412       .  A
C1142     Br1154   1.928       .  S
C1143      C1144   1.398       .  A
C1143     Br1158   1.936       .  S
C1144      C1147   1.509       .  S
C1144      C1145   1.409       .  A
C1145      C1146   1.428       .  A
C1145     Br1153   1.931       .  S
C1146     Br1157   1.918       .  S
C1147      C1148   1.413       .  A
C1147      C1152   1.405       .  A
C1148      C1149   1.421       .  A
C1148     Br1159   1.925       .  S
C1149      C1150   1.423       .  A
C1149     Br1155   1.932       .  S
C1150      C1151   1.435       .  A
C1151      C1152   1.412       .  A
C1151     Br1160   1.940       .  S
C1152     Br1156   1.939       .  S
C1161      C1162   1.408       .  A
C1161      C1166   1.405       .  A
C1162      C1163   1.405       .  A
C1162     Br1174   1.926       .  S
C1163      C1164   1.411       .  A
C1163     Br1178   1.929       .  S
C1164      C1167   1.478       .  S
C1164      C1165   1.410       .  A
C1165      C1166   1.400       .  A
C1165     Br1173   1.932       .  S
C1166     Br1177   1.926       .  S
C1167      C1168   1.410       .  A
C1167      C1172   1.411       .  A
C1168      C1169   1.400       .  A
C1168     Br1179   1.933       .  S
C1169      C1170   1.412       .  A
C1169     Br1175   1.934       .  S
C1170      C1171   1.410       .  A
C1171      C1172   1.403       .  A
C1171     Br1180   1.930       .  S
C1172     Br1176   1.931       .  S
C1181      C1182   1.407       .  A
C1181      C1186   1.409       .  A
C1182      C1183   1.402       .  A
C1182     Br1194   1.929       .  S
C1183      C1184   1.408       .  A
C1183     Br1198   1.928       .  S
C1184      C1187   1.472       .  S
C1184      C1185   1.407       .  A
C1185      C1186   1.401       .  A
C1185     Br1193   1.931       .  S
C1186     Br1197   1.932       .  S
C1187      C1188   1.401       .  A
C1187      C1192   1.399       .  A
C1188      C1189   1.403       .  A
C1188     Br1199   1.939       .  S
C1189      C1190   1.430       .  A
C1189     Br1195   1.939       .  S
C1190      C1191   1.432       .  A
C1191      C1192   1.408       .  A
C1191     Br1200   1.933       .  S
C1192     Br1196   1.935       .  S
C1201      C1202   1.408       .  A
C1201      C1206   1.409       .  A
C1202      C1203   1.402       .  A
C1202     Br1214   1.930       .  S
C1203      C1204   1.408       .  A
C1203     Br1218   1.931       .  S
C1204      C1207   1.477       .  S
C1204      C1205   1.409       .  A
C1205      C1206   1.406       .  A
C1205     Br1213   1.930       .  S
C1206     Br1217   1.924       .  S
C1207      C1208   1.409       .  A
C1207      C1212   1.408       .  A
C1208      C1209   1.405       .  A
C1208     Br1219   1.931       .  S
C1209      C1210   1.412       .  A
C1209     Br1215   1.931       .  S
C1210      C1211   1.409       .  A
C1211      C1212   1.400       .  A
C1211     Br1220   1.932       .  S
C1212     Br1216   1.930       .  S
C1221      C1222   1.410       .  A
C1221      C1226   1.412       .  A
C1222      C1223   1.400       .  A
C1222     Br1234   1.925       .  S
C1223      C1224   1.405       .  A
C1223     Br1238   1.931       .  S
C1224      C1227   1.471       .  S
C1224      C1225   1.407       .  A
C1225      C1226   1.404       .  A
C1225     Br1233   1.931       .  S
C1226     Br1237   1.928       .  S
C1227      C1228   1.409       .  A
C1227      C1232   1.410       .  A
C1228      C1229   1.397       .  A
C1228     Br1239   1.931       .  S
C1229      C1230   1.405       .  A
C1229     Br1235   1.932       .  S
C1230      C1231   1.407       .  A
C1231      C1232   1.404       .  A
C1231     Br1240   1.929       .  S
C1232     Br1236   1.929       .  S
C1241      C1242   1.418       .  A
C1241      C1246   1.413       .  A
C1242      C1243   1.414       .  A
C1242     Br1254   1.934       .  S
C1243      C1244   1.413       .  A
C1243     Br1258   1.932       .  S
C1244      C1247   1.518       .  S
C1244      C1245   1.419       .  A
C1245      C1246   1.422       .  A
C1245     Br1253   1.920       .  S
C1246     Br1257   1.930       .  S
C1247      C1248   1.399       .  A
C1247      C1252   1.411       .  A
C1248      C1249   1.412       .  A
C1248     Br1259   1.935       .  S
C1249      C1250   1.447       .  A
C1249     Br1255   1.934       .  S
C1250      C1251   1.448       .  A
C1251      C1252   1.435       .  A
C1251     Br1260   1.922       .  S
C1252     Br1256   1.927       .  S
C1261      C1262   1.425       .  A
C1261      C1266   1.448       .  A
C1262      C1263   1.423       .  A
C1262     Br1274   1.930       .  S
C1263      C1264   1.413       .  A
C1263     Br1278   1.928       .  S
C1264      C1267   1.511       .  S
C1264      C1265   1.403       .  A
C1265      C1266   1.413       .  A
C1265     Br1273   1.943       .  S
C1266     Br1277   1.952       .  S
C1267      C1268   1.410       .  A
C1267      C1272   1.400       .  A
C1268      C1269   1.426       .  A
C1268     Br1279   1.934       .  S
C1269      C1270   1.443       .  A
C1269     Br1275   1.916       .  S
C1270      C1271   1.448       .  A
C1270      C2157   1.618       .  S
C1271      C1272   1.415       .  A
C1271     Br1280   1.927       .  S
C1272     Br1276   1.939       .  S
C1281      C1282   1.455       .  A
C1281      C1286   1.460       .  A
C1282      C1283   1.427       .  A
C1282     Br1294   1.939       .  S
C1283      C1284   1.405       .  A
C1283     Br1298   1.935       .  S
C1284      C1287   1.507       .  S
C1284      C1285   1.393       .  A
C1285      C1286   1.414       .  A
C1285     Br1293   1.939       .  S
C1286     Br1297   1.932       .  S
C1287      C1288   1.417       .  A
C1287      C1292   1.408       .  A
C1288      C1289   1.416       .  A
C1288     Br1299   1.921       .  S
C1289      C1290   1.410       .  A
C1289     Br1295   1.931       .  S
C1290      C1291   1.420       .  A
C1291      C1292   1.412       .  A
C1291     Br1300   1.925       .  S
C1292     Br1296   1.933       .  S
C1301      C1302   1.416       .  A
C1301      C1306   1.413       .  A
C1302      C1303   1.408       .  A
C1302     Br1314   1.925       .  S
C1303      C1304   1.408       .  A
C1303     Br1318   1.932       .  S
C1304      C1307   1.512       .  S
C1304      C1305   1.419       .  A
C1305      C1306   1.425       .  A
C1305     Br1313   1.926       .  S
C1306     Br1317   1.925       .  S
C1307      C1308   1.400       .  A
C1307      C1312   1.397       .  A
C1308      C1309   1.427       .  A
C1308     Br1319   1.937       .  S
C1309      C1310   1.458       .  A
C1309     Br1315   1.938       .  S
C1310      C1311   1.471       .  A
C1311      C1312   1.422       .  A
C1311     Br1320   1.947       .  S
C1312     Br1316   1.956       .  S
O1321      C1332   1.307       .  A
O1321     Eu1357   2.547       .  S
O1322      C1333   1.312       .  A
O1322     Eu1356   2.578       .  S
O1323      C1334   1.289       .  A
O1323     Eu1329   2.457       .  S
O1324      C1335   1.284       .  A
O1324     Eu1329   2.446       .  S
O1325      C1335   1.284       .  A
O1325     Eu1359   2.442       .  S
O1326      C1334   1.285       .  A
O1326     Eu1358   2.440       .  S
O1327      C1333   1.278       .  A
O1327     Eu1329   2.402       .  S
O1328      C1332   1.288       .  A
O1328     Eu1329   2.435       .  S
Eu1329     O1339   2.354       .  S
Eu1329     O1331   2.339       .  S
Eu1329     O1330   2.342       .  S
Eu1329     O1337   2.352       .  S
O1330     Eu1359   2.337       .  S
O1330     Eu1356   2.369       .  S
O1331     Eu1357   2.377       .  S
O1331     Eu1358   2.353       .  S
C1332      C1961   1.505       .  S
C1333      C1790   1.530       .  S
C1334      C1821   1.467       .  S
C1335      C1850   1.505       .  S
H1336      O1337   0.960       .  S
O1337     Eu1358   2.349       .  S
O1337     Eu1356   2.379       .  S
H1338      O1339   0.966       .  S
O1339     Eu1357   2.384       .  S
O1339     Eu1359   2.343       .  S
O1340      C1363   1.305       .  A
O1340     Eu1356   2.538       .  S
O1341      C1364   1.306       .  A
O1341     Eu1357   2.539       .  S
O1342      C1365   1.286       .  A
O1342     Eu1358   2.429       .  S
O1343      C1366   1.281       .  A
O1343     Eu1359   2.420       .  S
O1344      C1367   1.286       .  A
O1344     Eu1359   2.425       .  S
O1345      C1368   1.274       .  A
O1345     Eu1358   2.403       .  S
O1346      C1369   1.284       .  A
O1346     Eu1360   2.433       .  S
O1347      C1370   1.288       .  A
O1347     Eu1360   2.455       .  S
O1348      C1369   1.289       .  A
O1348     Eu1358   2.454       .  S
O1349      C1370   1.284       .  A
O1349     Eu1359   2.439       .  S
O1350      C1365   1.310       .  A
O1350     Eu1356   2.562       .  S
O1351      C1368   1.307       .  A
O1351     Eu1357   2.559       .  S
O1352      C1367   1.306       .  A
O1352     Eu1357   2.542       .  S
O1353      C1366   1.309       .  A
O1353     Eu1356   2.564       .  S
O1354      C1363   1.283       .  A
O1354     Eu1360   2.428       .  S
O1355      C1364   1.284       .  A
O1355     Eu1360   2.417       .  S
Eu1356     O1374   2.381       .  S
Eu1356     O1362   2.381       .  S
Eu1357     O1361   2.375       .  S
Eu1357     O1372   2.385       .  S
Eu1358     O1372   2.348       .  S
Eu1358     O1362   2.339       .  S
Eu1359     O1361   2.338       .  S
Eu1359     O1374   2.349       .  S
Eu1360     O1361   2.345       .  S
Eu1360     O1372   2.353       .  S
Eu1360     O1374   2.337       .  S
Eu1360     O1362   2.351       .  S
C1363      C1810   1.520       .  S
C1364      C1950   1.496       .  S
C1365      C1741   1.512       .  S
C1366      C1761   1.527       .  S
C1367      C1901   1.504       .  S
C1368      C1921   1.534       .  S
C1369      C1881   1.472       .  S
C1370      C1861   1.472       .  S
H1371      O1372   0.968       .  S
H1373      O1374   0.966       .  S
N1375      H1407   1.041       .  S
N1375      C1379   1.351   1_455  A
N1376      C2043   1.344       .  A
N1376      C1384   1.345       .  A
N1377      H1408   1.041       .  S
N1377      C1381   1.346       .  A
N1378      C2045   1.346       .  A
N1378      C1386   1.348       .  A
C1379      C1387   1.386   1_655  A
C1379      C1395   1.410       .  A
C1380      C1396   1.411       .  A
C1380      C1388   1.388       .  A
C1381      C1389   1.387       .  A
C1381      C1398   1.405       .  A
C1382      C1397   1.407       .  A
C1382      C1390   1.387       .  A
C1383      N2036   1.344       .  A
C1383      C1395   1.405       .  A
C1383      C1391   1.387       .  A
C1384      C1398   1.403       .  A
C1384      C1392   1.385       .  A
C1385      N2038   1.346   1_545  A
C1385      C1393   1.386   1_545  A
C1385      C1396   1.405       .  A
C1386      C1394   1.387       .  A
C1386      C1397   1.411       .  A
C1387      H1399   1.082   1_455  S
C1388      H1400   1.082       .  S
C1389      H1401   1.083       .  S
C1390      H1402   1.082       .  S
C1391      C2052   1.376       .  A
C1391      H1403   1.082       .  S
C1392      C2051   1.376       .  A
C1392      H1404   1.082       .  S
C1393      C2054   1.374       .  A
C1393      H1405   1.082   1_565  S
C1394      C2053   1.374       .  A
C1394      H1406   1.082       .  S
C1395      C1830   1.483       .  S
C1396      C1841   1.475       .  S
C1397      C1870   1.482       .  S
C1398      C1890   1.470       .  S
O1409      C1420   1.303       .  A
O1409     Eu2105   2.525       .  S
O1410      C1421   1.307       .  A
O1410     Eu1444   2.550       .  S
O1411      C1422   1.277   1_554  A
O1411     Eu1417   2.412       .  S
O1412      C1423   1.281       .  A
O1413      C1423   1.288       .  A
O1413     Eu2107   2.455       .  S
O1414      C1422   1.283       .  A
O1414     Eu2106   2.440   1_556  S
O1415      C1421   1.289       .  A
O1415     Eu1417   2.443       .  S
O1416      C1420   1.288       .  A
O1416     Eu1417   2.444   1_556  S
Eu1417     O1419   2.345   1_554  S
Eu1417     O1425   2.351       .  S
O1418     Eu2107   2.352       .  S
O1419     Eu2105   2.380       .  S
O1419     Eu2106   2.344   1_556  S
C1420      C1721   1.491       .  S
C1421      C1541   1.509       .  S
C1422      C1590   1.498       .  S
C1423      C1601   1.488       .  S
H1424      O1425   0.962       .  S
O1425     Eu2106   2.350       .  S
O1425     Eu1444   2.383       .  S
H1426      O1427   0.964       .  S
O1427     Eu2107   2.341   1_556  S
O1428      C1451   1.306       .  A
O1428     Eu2104   2.553       .  S
O1429      C1452   1.306       .  A
O1429     Eu1445   2.545   1_545  S
O1430      C1453   1.291       .  A
O1430     Eu2106   2.460       .  S
O1431      C1454   1.285       .  A
O1431     Eu2107   2.420       .  S
O1432      C1455   1.287       .  A
O1432     Eu1447   2.435   1_556  S
O1433      C1456   1.288   1_565  A
O1433     Eu1446   2.437   1_556  S
O1434      C1457   1.283       .  A
O1434     Eu1448   2.430       .  S
O1435      C1458   1.284       .  A
O1436      C1457   1.286   1_556  A
O1436     Eu1446   2.438   1_546  S
O1437      C1458   1.285       .  A
O1437     Eu1447   2.447   1_545  S
O1438      C1453   1.309       .  A
O1438     Eu1444   2.559       .  S
O1439      C1456   1.306   1_565  A
O1439     Eu1445   2.543       .  S
O1440      C1455   1.310       .  A
O1441      C1454   1.308       .  A
O1442      C1451   1.281       .  A
O1442     Eu1448   2.415       .  S
O1443      C1452   1.287       .  A
O1443     Eu1448   2.437   1_556  S
Eu1444     O2088   2.553       .  S
Eu1444     O2110   2.371       .  S
Eu1445     O2069   2.525       .  S
Eu1445     O2079   2.380       .  S
Eu1445     O1460   2.380   1_565  S
Eu1446     O2074   2.440   1_554  S
Eu1446     O2090   2.460       .  S
Eu1446     O2079   2.344   1_554  S
Eu1446     O2085   2.350       .  S
Eu1446     O1460   2.362   1_564  S
Eu1446     O1450   2.344   1_565  S
Eu1447     O2073   2.455       .  S
Eu1447     O2091   2.420       .  S
Eu1447     O2078   2.352       .  S
Eu1447     O2087   2.341   1_554  S
Eu1447     O1449   2.344   1_564  S
Eu1447     O1462   2.357   1_565  S
Eu1448     O1460   2.340   1_554  S
Eu1448     O1450   2.347       .  S
O1450     Eu2104   2.371       .  S
C1451      C1561   1.526       .  S
C1452      C1701   1.513       .  S
C1453      C1501   1.516       .  S
C1454      C1530   1.515       .  S
C1455      C1670   1.513       .  S
C1456      C1681   1.505       .  S
C1457      C1650   1.481   1_554  S
C1458      C1630   1.494   1_554  S
H1459      O1460   0.966       .  S
H1461      O1462   0.968       .  S
N1463      H1495   1.037       .  S
N1463      C1468   1.352       .  A
N1463      C1467   1.353       .  A
N1464      C1471   1.349       .  A
N1464      C1472   1.348       .  A
N1465      H1496   1.038       .  S
N1465      C1470   1.352       .  A
N1465      C1469   1.350       .  A
N1466      C1473   1.346       .  A
N1466      C1474   1.348       .  A
C1467      C1475   1.388       .  A
C1467      C1483   1.415       .  A
C1468      C1484   1.413       .  A
C1468      C1476   1.387       .  A
C1469      C1477   1.388       .  A
C1469      C1486   1.410       .  A
C1470      C1485   1.411       .  A
C1470      C1478   1.387       .  A
C1471      C1483   1.410       .  A
C1471      C1479   1.387       .  A
C1472      C1486   1.407       .  A
C1472      C1480   1.386       .  A
C1473      C1481   1.386       .  A
C1473      C1484   1.406       .  A
C1474      C1482   1.387       .  A
C1474      C1485   1.406       .  A
C1475      C1476   1.370       .  A
C1475      H1487   1.082       .  S
C1476      H1488   1.082       .  S
C1477      C1478   1.370       .  A
C1477      H1489   1.082       .  S
C1478      H1490   1.082       .  S
C1479      C1480   1.368       .  A
C1479      H1491   1.082       .  S
C1480      H1492   1.083       .  S
C1481      C1482   1.369       .  A
C1481      H1493   1.083       .  S
C1482      H1494   1.082       .  S
C1483      C1621   1.483       .  S
C1484      C1641   1.476       .  S
C1485      C1581   1.476       .  S
C1486      C1610   1.476       .  S
C1497      C1550   1.632       .  S
C1497      C1570   1.623       .  S
C1497      C1910   1.636       .  S
C1498      C2170   1.620       .  S
C1498      C2181   1.628       .  S
C1498      C2601   1.621       .  S
C1498      C1970   1.637   1_565  S
C1499      C1710   1.634       .  S
C1499      C1730   1.618       .  S
C1499      C1750   1.625       .  S
C1500      C2321   1.627       .  S
C1500      C2350   1.627       .  S
C1500      C2441   1.627       .  S
C1500      C1801   1.620       .  S
C1501      C1502   1.419       .  A
C1501      C2166   1.415       .  A
C1502      C1503   1.419       .  A
C1502     Br1514   1.922       .  S
C1503      C1504   1.411       .  A
C1503     Br1518   1.930       .  S
C1504      C1507   1.522       .  S
C1504      C2165   1.418       .  A
C1505      C2164   1.418   1_545  A
C1505      C1506   1.425       .  A
C1505     Br1513   1.925       .  S
C1506      C2161   1.415   1_545  A
C1506     Br1517   1.926       .  S
C1507      C2168   1.398       .  A
C1507      C1512   1.410       .  A
C1508      C2167   1.398       .  A
C1508      C1509   1.417       .  A
C1508     Br1519   1.936       .  S
C1509      C2170   1.455       .  A
C1509     Br1515   1.930       .  S
C1510      C2169   1.455       .  A
C1510      C1511   1.455       .  A
C1510      C2158   1.620       .  S
C1511      C1512   1.432       .  A
C1511     Br1520   1.938       .  S
C1512     Br1516   1.933       .  S
C1521      C1522   1.466       .  A
C1521      C2186   1.455       .  A
C1521      C2158   1.628       .  S
C1522      C1523   1.414       .  A
C1522     Br1534   1.934       .  S
C1523      C1524   1.393       .  A
C1523     Br1538   1.942       .  S
C1524      C1527   1.502       .  S
C1524      C2185   1.400       .  A
C1525      C2184   1.400       .  A
C1525      C1526   1.418       .  A
C1525     Br1533   1.937       .  S
C1526      C2181   1.455   1_545  A
C1526     Br1537   1.930       .  S
C1527      C1528   1.418       .  A
C1527      C2192   1.400       .  A
C1528      C1529   1.425       .  A
C1528     Br1539   1.927       .  S
C1529      C1530   1.417       .  A
C1529     Br1535   1.924       .  S
C1530      C2191   1.424       .  A
C1531      C2190   1.424       .  A
C1531      C1532   1.400       .  A
C1531     Br1540   1.921       .  S
C1532      C2187   1.400       .  A
C1532     Br1536   1.936       .  S
C1541      C1546   1.413       .  A
C1542      C1543   1.413       .  A
C1542     Br1554   1.923       .  S
C1543     Br1558   1.934       .  S
C1544      C1547   1.518       .  S
C1544      C1545   1.420       .  A
C1545      C1546   1.424       .  A
C1545     Br1553   1.923       .  S
C1546     Br1557   1.925       .  S
C1547      C1552   1.403       .  A
C1548      C1549   1.430       .  A
C1548     Br1559   1.938       .  S
C1549     Br1555   1.921       .  S
C1550      C1551   1.447       .  A
C1551      C1552   1.420       .  A
C1551     Br1560   1.916       .  S
C1552     Br1556   1.935       .  S
C1561      C1566   1.422       .  A
C1562      C1563   1.404       .  A
C1562     Br1574   1.934       .  S
C1563     Br1578   1.937   1_455  S
C1564      C1567   1.511       .  S
C1564      C1565   1.417       .  A
C1565      C1566   1.426       .  A
C1565     Br1573   1.926       .  S
C1566     Br1577   1.928       .  S
C1567      C1568   1.407       .  A
C1568      C1569   1.422       .  A
C1568     Br1579   1.939       .  S
C1569      C1570   1.443       .  A
C1569     Br1575   1.924       .  S
C1571      C1572   1.423       .  A
C1571     Br1580   1.940       .  S
C1572     Br1576   1.942       .  S
C1581      C1582   1.407       .  A
C1581      C1586   1.409       .  A
C1582      C1583   1.402       .  A
C1582     Br1594   1.927       .  S
C1583      C1584   1.408       .  A
C1583     Br1598   1.931       .  S
C1584      C1587   1.468       .  S
C1584      C1585   1.406       .  A
C1585      C1586   1.398       .  A
C1585     Br1593   1.933   1_556  S
C1586     Br1597   1.931   1_556  S
C1587      C1588   1.400       .  A
C1587      C1592   1.398       .  A
C1588      C1589   1.403       .  A
C1588     Br1599   1.937       .  S
C1589      C1590   1.432       .  A
C1589     Br1595   1.943       .  S
C1590      C1591   1.436       .  A
C1591      C1592   1.403       .  A
C1591     Br1600   1.945       .  S
C1592     Br1596   1.939       .  S
C1601      C1602   1.426   1_554  A
C1601      C1606   1.419       .  A
C1602      C1603   1.404       .  A
C1602     Br1614   1.937       .  S
C1603      C1604   1.403       .  A
C1603     Br1618   1.937       .  S
C1604      C1607   1.471       .  S
C1604      C1605   1.403   1_556  A
C1605      C1606   1.403       .  A
C1605     Br1613   1.931       .  S
C1606     Br1617   1.935       .  S
C1607      C1608   1.410       .  A
C1607      C1612   1.407       .  A
C1608      C1609   1.402       .  A
C1608     Br1619   1.929       .  S
C1609      C1610   1.406       .  A
C1609     Br1615   1.929       .  S
C1610      C1611   1.409       .  A
C1611      C1612   1.400       .  A
C1611     Br1620   1.931   1_556  S
C1612     Br1616   1.931   1_556  S
C1621      C1622   1.408       .  A
C1621      C1626   1.412       .  A
C1622      C1623   1.404       .  A
C1622     Br1634   1.929       .  S
C1623      C1624   1.410       .  A
C1623     Br1638   1.931       .  S
C1624      C1627   1.476       .  S
C1624      C1625   1.407       .  A
C1625      C1626   1.402       .  A
C1625     Br1633   1.930   1_556  S
C1626     Br1637   1.932   1_556  S
C1627      C1628   1.402       .  A
C1627      C1632   1.403       .  A
C1628      C1629   1.403       .  A
C1628     Br1639   1.933       .  S
C1629      C1630   1.424       .  A
C1629     Br1635   1.933       .  S
C1630      C1631   1.424   1_556  A
C1631      C1632   1.406   1_554  A
C1631     Br1640   1.935       .  S
C1632     Br1636   1.932   1_556  S
C1641      C1642   1.411       .  A
C1641      C1646   1.405       .  A
C1642      C1643   1.401       .  A
C1642     Br1654   1.931   1_556  S
C1643      C1644   1.405       .  A
C1643     Br1658   1.931   1_556  S
C1644      C1647   1.469       .  S
C1644      C1645   1.409       .  A
C1645      C1646   1.400       .  A
C1645     Br1653   1.930       .  S
C1646     Br1657   1.929       .  S
C1647      C1648   1.404   1_556  A
C1647      C1652   1.400       .  A
C1648      C1649   1.405       .  A
C1648     Br1659   1.931       .  S
C1649      C1650   1.420   1_554  A
C1649     Br1655   1.935       .  S
C1650      C1651   1.422       .  A
C1651      C1652   1.398       .  A
C1651     Br1660   1.935       .  S
C1652     Br1656   1.934       .  S
C1661      C1662   1.446   1_565  A
C1661      C2326   1.448       .  A
C1661      C2160   1.627   1_565  S
C1662      C1663   1.433       .  A
C1662     Br1674   1.923       .  S
C1663      C1664   1.411   1_545  A
C1663     Br1678   1.927       .  S
C1664      C1667   1.522       .  S
C1664      C2325   1.402       .  A
C1665      C2324   1.402       .  A
C1665      C1666   1.416       .  A
C1665     Br1673   1.934       .  S
C1666      C2321   1.448       .  A
C1666     Br1677   1.930       .  S
C1667      C1668   1.420   1_565  A
C1667      C1672   1.412       .  A
C1668      C1669   1.424       .  A
C1668     Br1679   1.920       .  S
C1669      C1670   1.413   1_545  A
C1669     Br1675   1.929       .  S
C1670      C1671   1.420       .  A
C1671      C1672   1.416       .  A
C1671     Br1680   1.923       .  S
C1672     Br2336   1.935       .  S
Br1676     C2332   1.935       .  S
C1681      C1682   1.416       .  A
C1681      C2346   1.413   1_545  A
C1682      C1683   1.409       .  A
C1682     Br1694   1.923       .  S
C1683      C1684   1.408   1_545  A
C1683     Br1698   1.933       .  S
C1684      C1687   1.512       .  S
C1684      C2345   1.420       .  A
C1685      C2344   1.420       .  A
C1685      C1686   1.423       .  A
C1685     Br1693   1.922       .  S
C1686      C2341   1.413       .  A
C1686     Br1697   1.925       .  S
C1687      C1688   1.401   1_565  A
C1687      C2352   1.406       .  A
C1688      C1689   1.417       .  A
C1688     Br1699   1.937       .  S
C1689      C1690   1.449       .  A
C1689     Br1695   1.927       .  S
C1690      C2351   1.449   1_545  A
C1690      C2160   1.627       .  S
C1691      C2350   1.449       .  A
C1691      C1692   1.429       .  A
C1691     Br1700   1.919       .  S
C1692      C2347   1.406       .  A
C1692     Br1696   1.934       .  S
C1701      C1702   1.420       .  A
C1702      C1703   1.407       .  A
C1702     Br1714   1.913       .  S
C1703      C1704   1.403       .  A
C1703     Br1718   1.936       .  S
C1704      C1707   1.508       .  S
C1705      C1706   1.424       .  A
C1705     Br1713   1.927       .  S
C1706     Br1717   1.926       .  S
C1707      C1712   1.398       .  A
C1708      C1709   1.420       .  A
C1708     Br1719   1.951       .  S
C1709      C1710   1.471       .  A
C1709     Br1715   1.946       .  S
C1711      C1712   1.424       .  A
C1711     Br1720   1.930       .  S
C1712     Br1716   1.937       .  S
C1721      C1726   1.412       .  A
C1722      C1723   1.415       .  A
C1722     Br1734   1.928       .  S
C1723     Br1738   1.929       .  S
C1724      C1727   1.508       .  S
C1724      C1725   1.413       .  A
C1725      C1726   1.414       .  A
C1725     Br1733   1.928       .  S
C1726     Br1737   1.925       .  S
C1727      C1732   1.395       .  A
C1728      C1729   1.430       .  A
C1728     Br1739   1.938       .  S
C1729      C1730   1.457   1_455  A
C1729     Br1735   1.940   1_455  S
C1731      C1732   1.415       .  A
C1731     Br1740   1.938       .  S
C1732     Br1736   1.944       .  S
C1741      C1742   1.422       .  A
C1741      C1746   1.413       .  A
C1742      C1743   1.419       .  A
C1742     Br1754   1.932       .  S
C1743      C1744   1.412       .  A
C1743     Br1758   1.931       .  S
C1744      C1747   1.522       .  S
C1744      C1745   1.421       .  A
C1745      C1746   1.422       .  A
C1745     Br1753   1.927       .  S
C1746     Br1757   1.929       .  S
C1747      C1748   1.412       .  A
C1747      C1752   1.395       .  A
C1748      C1749   1.436       .  A
C1748     Br1759   1.933       .  S
C1749      C1750   1.455       .  A
C1749     Br1755   1.931       .  S
C1750      C1751   1.456       .  A
C1751      C1752   1.414       .  A
C1751     Br1760   1.926       .  S
C1752     Br1756   1.939       .  S
C1761      C1762   1.440       .  A
C1761      C1766   1.422       .  A
C1762      C1763   1.410       .  A
C1762     Br1774   1.932       .  S
C1763      C1764   1.398       .  A
C1763     Br1778   1.940       .  S
C1764      C1767   1.504       .  S
C1764      C1765   1.413       .  A
C1765      C1766   1.422       .  A
C1765     Br1773   1.929       .  S
C1766     Br1777   1.928       .  S
C1767      C1768   1.390       .  A
C1767      C1772   1.401       .  A
C1768      C1769   1.409       .  A
C1768     Br1779   1.943       .  S
C1769      C1770   1.469       .  A
C1769     Br1775   1.950       .  S
C1770      C1771   1.458       .  A
C1771      C1772   1.428       .  A
C1771     Br1780   1.932       .  S
C1772     Br1776   1.937       .  S
C1781      C1782   1.444       .  A
C1781      C1786   1.447       .  A
C1781      C2160   1.627       .  S
C1782      C1783   1.429       .  A
C1782     Br1794   1.920       .  S
C1783      C1784   1.409       .  A
C1783     Br1798   1.931       .  S
C1784      C1787   1.512       .  S
C1784      C1785   1.399       .  A
C1785      C1786   1.415       .  A
C1785     Br1793   1.938       .  S
C1786     Br1797   1.924       .  S
C1787      C1788   1.404       .  A
C1787      C1792   1.414       .  A
C1788      C1789   1.413       .  A
C1788     Br1799   1.942       .  S
C1789      C1790   1.441       .  A
C1789     Br1795   1.943       .  S
C1790      C1791   1.423       .  A
C1791      C1792   1.425       .  A
C1791     Br1800   1.926       .  S
C1792     Br1796   1.927       .  S
C1801      C1802   1.445       .  A
C1801      C1806   1.442       .  A
C1802      C1803   1.412       .  A
C1802     Br1814   1.928       .  S
C1803      C1804   1.398       .  A
C1803     Br1818   1.936       .  S
C1804      C1807   1.509       .  S
C1804      C1805   1.409       .  A
C1805      C1806   1.428       .  A
C1805     Br1813   1.931       .  S
C1806     Br1817   1.918       .  S
C1807      C1808   1.413       .  A
C1807      C1812   1.405       .  A
C1808      C1809   1.421       .  A
C1808     Br1819   1.925       .  S
C1809      C1810   1.423       .  A
C1809     Br1815   1.932       .  S
C1810      C1811   1.435       .  A
C1811      C1812   1.412       .  A
C1811     Br1820   1.940       .  S
C1812     Br1816   1.939       .  S
C1821      C1822   1.408       .  A
C1821      C1826   1.405       .  A
C1822      C1823   1.405       .  A
C1822     Br1834   1.926       .  S
C1823      C1824   1.411       .  A
C1823     Br1838   1.929       .  S
C1824      C1827   1.478       .  S
C1824      C1825   1.410       .  A
C1825      C1826   1.400       .  A
C1825     Br1833   1.932       .  S
C1826     Br1837   1.926       .  S
C1827      C1828   1.410       .  A
C1827      C1832   1.411       .  A
C1828      C1829   1.400       .  A
C1828     Br1839   1.933       .  S
C1829      C1830   1.412       .  A
C1829     Br1835   1.934       .  S
C1830      C1831   1.410       .  A
C1831      C1832   1.403       .  A
C1831     Br1840   1.930       .  S
C1832     Br1836   1.931       .  S
C1841      C1842   1.407       .  A
C1841      C1846   1.409       .  A
C1842      C1843   1.402       .  A
C1842     Br1854   1.929       .  S
C1843      C1844   1.408       .  A
C1843     Br1858   1.928       .  S
C1844      C1847   1.472       .  S
C1844      C1845   1.407       .  A
C1845      C1846   1.401       .  A
C1845     Br1853   1.931       .  S
C1846     Br1857   1.932       .  S
C1847      C1848   1.401       .  A
C1847      C1852   1.399       .  A
C1848      C1849   1.403       .  A
C1848     Br1859   1.939       .  S
C1849      C1850   1.430       .  A
C1849     Br1855   1.939       .  S
C1850      C1851   1.432       .  A
C1851      C1852   1.408       .  A
C1851     Br1860   1.933       .  S
C1852     Br1856   1.935       .  S
C1861      C1862   1.408       .  A
C1861      C1866   1.409       .  A
C1862      C1863   1.402       .  A
C1862     Br1874   1.930       .  S
C1863      C1864   1.408       .  A
C1863     Br1878   1.931       .  S
C1864      C1867   1.477       .  S
C1864      C1865   1.408       .  A
C1865      C1866   1.406       .  A
C1865     Br1873   1.930       .  S
C1866     Br1877   1.924       .  S
C1867      C1868   1.409       .  A
C1867      C1872   1.408       .  A
C1868      C1869   1.405       .  A
C1868     Br1879   1.931       .  S
C1869      C1870   1.412       .  A
C1869     Br1875   1.931       .  S
C1870      C1871   1.409       .  A
C1871      C1872   1.400       .  A
C1871     Br1880   1.932       .  S
C1872     Br1876   1.930       .  S
C1881      C1882   1.410       .  A
C1881      C1886   1.412       .  A
C1882      C1883   1.400       .  A
C1882     Br1894   1.925       .  S
C1883      C1884   1.405       .  A
C1883     Br1898   1.931       .  S
C1884      C1887   1.471       .  S
C1884      C1885   1.407       .  A
C1885      C1886   1.404       .  A
C1885     Br1893   1.931       .  S
C1886     Br1897   1.928       .  S
C1887      C1888   1.409       .  A
C1887      C1892   1.410       .  A
C1888      C1889   1.397       .  A
C1888     Br1899   1.931       .  S
C1889      C1890   1.405       .  A
C1889     Br1895   1.932       .  S
C1890      C1891   1.407       .  A
C1891      C1892   1.404       .  A
C1891     Br1900   1.929       .  S
C1892     Br1896   1.929       .  S
C1901      C1902   1.418       .  A
C1901      C1906   1.413       .  A
C1902      C1903   1.414       .  A
C1902     Br1914   1.934       .  S
C1903      C1904   1.413       .  A
C1903     Br1918   1.932       .  S
C1904      C1907   1.518       .  S
C1904      C1905   1.419       .  A
C1905      C1906   1.422       .  A
C1905     Br1913   1.920       .  S
C1906     Br1917   1.930       .  S
C1907      C1908   1.399       .  A
C1907      C1912   1.411       .  A
C1908      C1909   1.412       .  A
C1908     Br1919   1.935       .  S
C1909      C1910   1.447       .  A
C1909     Br1915   1.934       .  S
C1910      C1911   1.448       .  A
C1911      C1912   1.435       .  A
C1911     Br1920   1.922       .  S
C1912     Br1916   1.927       .  S
C1921      C1922   1.425       .  A
C1921      C1926   1.448       .  A
C1922      C1923   1.423       .  A
C1922     Br1934   1.930       .  S
C1923      C1924   1.413       .  A
C1923     Br1938   1.928       .  S
C1924      C1927   1.511       .  S
C1924      C1925   1.403       .  A
C1925      C1926   1.413       .  A
C1925     Br1933   1.943       .  S
C1926     Br1937   1.952       .  S
C1927      C1928   1.410       .  A
C1927      C1932   1.400       .  A
C1928      C1929   1.426       .  A
C1928     Br1939   1.934       .  S
C1929      C1930   1.443       .  A
C1929     Br1935   1.916       .  S
C1930      C1931   1.448       .  A
C1931      C1932   1.415       .  A
C1931     Br1940   1.927       .  S
C1932     Br1936   1.939       .  S
C1941      C1942   1.455       .  A
C1941      C1946   1.460       .  A
C1941      C2158   1.621       .  S
C1942      C1943   1.427       .  A
C1942     Br1954   1.939       .  S
C1943      C1944   1.405       .  A
C1943     Br1958   1.935       .  S
C1944      C1947   1.507       .  S
C1944      C1945   1.393       .  A
C1945      C1946   1.414       .  A
C1945     Br1953   1.939       .  S
C1946     Br1957   1.932       .  S
C1947      C1948   1.417       .  A
C1947      C1952   1.408       .  A
C1948      C1949   1.416       .  A
C1948     Br1959   1.921       .  S
C1949      C1950   1.410       .  A
C1949     Br1955   1.931       .  S
C1950      C1951   1.420       .  A
C1951      C1952   1.412       .  A
C1951     Br1960   1.925       .  S
C1952     Br1956   1.933       .  S
C1961      C1962   1.416       .  A
C1961      C1966   1.413       .  A
C1962      C1963   1.408       .  A
C1962     Br1974   1.925       .  S
C1963      C1964   1.408       .  A
C1963     Br1978   1.932       .  S
C1964      C1967   1.512       .  S
C1964      C1965   1.419       .  A
C1965      C1966   1.424       .  A
C1965     Br1973   1.926       .  S
C1966     Br1977   1.925       .  S
C1967      C1968   1.400       .  A
C1967      C1972   1.397       .  A
C1968      C1969   1.427       .  A
C1968     Br1979   1.937       .  S
C1969      C1970   1.458       .  A
C1969     Br1975   1.938       .  S
C1970      C1971   1.471       .  A
C1971      C1972   1.422       .  A
C1971     Br1980   1.947       .  S
C1972     Br1976   1.956       .  S
O1981      C1992   1.307       .  A
O1981     Eu2017   2.547       .  S
O1982      C1993   1.312       .  A
O1982     Eu2016   2.578       .  S
O1983      C1994   1.289       .  A
O1983     Eu1989   2.457       .  S
O1984      C1995   1.284       .  A
O1984     Eu1989   2.446       .  S
O1985      C1995   1.284       .  A
O1985     Eu2019   2.442       .  S
O1986      C1994   1.285       .  A
O1986     Eu2018   2.440       .  S
O1987      C1993   1.278       .  A
O1987     Eu1989   2.402       .  S
O1988      C1992   1.288       .  A
O1988     Eu1989   2.435       .  S
Eu1989     O1999   2.354       .  S
Eu1989     O1991   2.339       .  S
Eu1989     O1990   2.342       .  S
Eu1989     O1997   2.352       .  S
O1990     Eu2019   2.337       .  S
O1990     Eu2016   2.369       .  S
O1991     Eu2017   2.377       .  S
O1991     Eu2018   2.353       .  S
C1992      C2621   1.505       .  S
C1993      C2450   1.530       .  S
C1994      C2481   1.467       .  S
C1995      C2510   1.505       .  S
H1996      O1997   0.960       .  S
O1997     Eu2018   2.349       .  S
O1997     Eu2016   2.379       .  S
H1998      O1999   0.965       .  S
O1999     Eu2017   2.384       .  S
O1999     Eu2019   2.343       .  S
O2000      C2023   1.305       .  A
O2000     Eu2016   2.538       .  S
O2001      C2024   1.306       .  A
O2001     Eu2017   2.539       .  S
O2002      C2025   1.286       .  A
O2002     Eu2018   2.429       .  S
O2003      C2026   1.281       .  A
O2003     Eu2019   2.420       .  S
O2004      C2027   1.286       .  A
O2004     Eu2019   2.425       .  S
O2005      C2028   1.274       .  A
O2005     Eu2018   2.403       .  S
O2006      C2029   1.284       .  A
O2006     Eu2020   2.433       .  S
O2007      C2030   1.288       .  A
O2007     Eu2020   2.455       .  S
O2008      C2029   1.289       .  A
O2008     Eu2018   2.454       .  S
O2009      C2030   1.284       .  A
O2009     Eu2019   2.439       .  S
O2010      C2025   1.310       .  A
O2010     Eu2016   2.562       .  S
O2011      C2028   1.307       .  A
O2011     Eu2017   2.559       .  S
O2012      C2027   1.306       .  A
O2012     Eu2017   2.542       .  S
O2013      C2026   1.309       .  A
O2013     Eu2016   2.564       .  S
O2014      C2023   1.283       .  A
O2014     Eu2020   2.428       .  S
O2015      C2024   1.284       .  A
O2015     Eu2020   2.417       .  S
Eu2016     O2034   2.381       .  S
Eu2016     O2022   2.381       .  S
Eu2017     O2021   2.375       .  S
Eu2017     O2032   2.385       .  S
Eu2018     O2032   2.348       .  S
Eu2018     O2022   2.339       .  S
Eu2019     O2021   2.338       .  S
Eu2019     O2034   2.349       .  S
Eu2020     O2021   2.345       .  S
Eu2020     O2032   2.353       .  S
Eu2020     O2034   2.337       .  S
Eu2020     O2022   2.351       .  S
C2023      C2470   1.520       .  S
C2024      C2610   1.496       .  S
C2025      C2401   1.512       .  S
C2026      C2421   1.527       .  S
C2027      C2561   1.504       .  S
C2028      C2581   1.534       .  S
C2029      C2541   1.472       .  S
C2030      C2521   1.472       .  S
H2031      O2032   0.968       .  S
H2033      O2034   0.966       .  S
N2035      H2067   1.041       .  S
N2035      C2039   1.351   1_455  A
N2036      C2044   1.345   1_545  A
N2037      H2068   1.041       .  S
N2037      C2041   1.346       .  A
N2038      C2046   1.348       .  A
C2039      C2047   1.386   1_655  A
C2039      C2055   1.410       .  A
C2040      C2056   1.411       .  A
C2040      C2048   1.388       .  A
C2041      C2049   1.387       .  A
C2041      C2058   1.405       .  A
C2042      C2057   1.407       .  A
C2042      C2050   1.387       .  A
C2043      C2055   1.405       .  A
C2043      C2051   1.387       .  A
C2044      C2058   1.403       .  A
C2044      C2052   1.385   1_565  A
C2045      C2053   1.386       .  A
C2045      C2056   1.405       .  A
C2046      C2054   1.387       .  A
C2046      C2057   1.411       .  A
C2047      H2059   1.082   1_455  S
C2048      H2060   1.082       .  S
C2049      H2061   1.083       .  S
C2050      H2062   1.082       .  S
C2051      H2063   1.082       .  S
C2052      H2064   1.082   1_545  S
C2053      H2065   1.082       .  S
C2054      H2066   1.082       .  S
C2055      C2490   1.483       .  S
C2056      C2501   1.475       .  S
C2057      C2530   1.483       .  S
C2058      C2550   1.470       .  S
O2069      C2080   1.303       .  A
O2070      C2081   1.307       .  A
O2070     Eu2104   2.550   1_565  S
O2071      C2082   1.277   1_554  A
O2071     Eu2077   2.412       .  S
O2072      C2083   1.281       .  A
O2073      C2083   1.288       .  A
O2074      C2082   1.283       .  A
O2075      C2081   1.289       .  A
O2075     Eu2077   2.443       .  S
O2076      C2080   1.288       .  A
O2076     Eu2077   2.444   1_556  S
Eu2077     O2079   2.345   1_554  S
Eu2077     O2085   2.350       .  S
C2080      C2381   1.491       .  S
C2081      C2201   1.509       .  S
C2082      C2250   1.498       .  S
C2083      C2261   1.488       .  S
H2084      O2085   0.962       .  S
O2085     Eu2104   2.383   1_565  S
H2086      O2087   0.964       .  S
O2088      C2111   1.306       .  A
O2089      C2112   1.306       .  A
O2089     Eu2105   2.545       .  S
O2090      C2113   1.291       .  A
O2091      C2114   1.285   1_565  A
O2092      C2115   1.287       .  A
O2092     Eu2107   2.435   1_556  S
O2093      C2116   1.288       .  A
O2093     Eu2106   2.437   1_556  S
O2094      C2117   1.283       .  A
O2094     Eu2108   2.430       .  S
O2095      C2118   1.284       .  A
O2096      C2117   1.286   1_556  A
O2096     Eu2106   2.438   1_556  S
O2097      C2118   1.285       .  A
O2097     Eu2107   2.447       .  S
O2098      C2113   1.309   1_545  A
O2098     Eu2104   2.559       .  S
O2099      C2116   1.306       .  A
O2099     Eu2105   2.543       .  S
O2100      C2115   1.310       .  A
O2101      C2114   1.308       .  A
O2102      C2111   1.281       .  A
O2102     Eu2108   2.415       .  S
O2103      C2112   1.287       .  A
O2103     Eu2108   2.437   1_556  S
Eu2105     O2120   2.380       .  S
Eu2106     O2120   2.362   1_554  S
Eu2106     O2110   2.344       .  S
Eu2107     O2109   2.344   1_554  S
Eu2107     O2122   2.357       .  S
Eu2108     O2120   2.340   1_554  S
Eu2108     O2110   2.347       .  S
C2111      C2221   1.526       .  S
C2112      C2361   1.513       .  S
C2113      C2161   1.516       .  S
C2114      C2190   1.515       .  S
C2115      C2330   1.513       .  S
C2116      C2341   1.505       .  S
C2117      C2310   1.481   1_554  S
C2118      C2290   1.495   1_554  S
H2119      O2120   0.966       .  S
H2121      O2122   0.968       .  S
N2123      H2155   1.037       .  S
N2123      C2128   1.352       .  A
N2123      C2127   1.353       .  A
N2124      C2131   1.349       .  A
N2124      C2132   1.348       .  A
N2125      H2156   1.038       .  S
N2125      C2130   1.352       .  A
N2125      C2129   1.350       .  A
N2126      C2133   1.346       .  A
N2126      C2134   1.348       .  A
C2127      C2135   1.388       .  A
C2127      C2143   1.415       .  A
C2128      C2144   1.413       .  A
C2128      C2136   1.387       .  A
C2129      C2137   1.388       .  A
C2129      C2146   1.410       .  A
C2130      C2145   1.411       .  A
C2130      C2138   1.387       .  A
C2131      C2143   1.410       .  A
C2131      C2139   1.387       .  A
C2132      C2146   1.407       .  A
C2132      C2140   1.386       .  A
C2133      C2141   1.386       .  A
C2133      C2144   1.406       .  A
C2134      C2142   1.387       .  A
C2134      C2145   1.406       .  A
C2135      C2136   1.370       .  A
C2135      H2147   1.082       .  S
C2136      H2148   1.082       .  S
C2137      C2138   1.370       .  A
C2137      H2149   1.082       .  S
C2138      H2150   1.082       .  S
C2139      C2140   1.368       .  A
C2139      H2151   1.082       .  S
C2140      H2152   1.083       .  S
C2141      C2142   1.369       .  A
C2141      H2153   1.083       .  S
C2142      H2154   1.082       .  S
C2143      C2281   1.483       .  S
C2144      C2301   1.477       .  S
C2145      C2241   1.476       .  S
C2146      C2270   1.476       .  S
C2157      C2210   1.632       .  S
C2157      C2230   1.623       .  S
C2157      C2570   1.636       .  S
C2158      C2630   1.637       .  S
C2159      C2370   1.634       .  S
C2159      C2390   1.618       .  S
C2159      C2410   1.625       .  S
C2160      C2461   1.620   1_545  S
C2161      C2162   1.419       .  A
C2162      C2163   1.419       .  A
C2162     Br2174   1.922       .  S
C2163      C2164   1.411       .  A
C2163     Br2178   1.930       .  S
C2164      C2167   1.522       .  S
C2165      C2166   1.425       .  A
C2165     Br2173   1.925       .  S
C2166     Br2177   1.926       .  S
C2167      C2172   1.410   1_565  A
C2168      C2169   1.417       .  A
C2168     Br2179   1.936       .  S
C2169     Br2175   1.930       .  S
C2170      C2171   1.455   1_565  A
C2171      C2172   1.432       .  A
C2171     Br2180   1.938       .  S
C2172     Br2176   1.933       .  S
C2181      C2182   1.466       .  A
C2182      C2183   1.414       .  A
C2182     Br2194   1.934       .  S
C2183      C2184   1.393   1_565  A
C2183     Br2198   1.942       .  S
C2184      C2187   1.502       .  S
C2185      C2186   1.418       .  A
C2185     Br2193   1.937       .  S
C2186     Br2197   1.930       .  S
C2187      C2188   1.418   1_545  A
C2188      C2189   1.425       .  A
C2188     Br2199   1.927       .  S
C2189      C2190   1.417   1_565  A
C2189     Br2195   1.924       .  S
C2191      C2192   1.400       .  A
C2191     Br2200   1.921       .  S
C2192     Br2196   1.936       .  S
C2201      C2206   1.413       .  A
C2202      C2203   1.413       .  A
C2202     Br2214   1.923       .  S
C2203     Br2218   1.934       .  S
C2204      C2207   1.518       .  S
C2204      C2205   1.420       .  A
C2205      C2206   1.424       .  A
C2205     Br2213   1.923       .  S
C2206     Br2217   1.925       .  S
C2207      C2212   1.403       .  A
C2208      C2209   1.430       .  A
C2208     Br2219   1.938       .  S
C2209     Br2215   1.921       .  S
C2210      C2211   1.447       .  A
C2211      C2212   1.420       .  A
C2211     Br2220   1.916       .  S
C2212     Br2216   1.936       .  S
C2221      C2226   1.422       .  A
C2222      C2223   1.404       .  A
C2222     Br2234   1.934       .  S
C2223     Br2238   1.937   1_455  S
C2224      C2227   1.511       .  S
C2224      C2225   1.417       .  A
C2225      C2226   1.426       .  A
C2225     Br2233   1.926       .  S
C2226     Br2237   1.928       .  S
C2227      C2228   1.407       .  A
C2228      C2229   1.422       .  A
C2228     Br2239   1.939       .  S
C2229      C2230   1.443       .  A
C2229     Br2235   1.924       .  S
C2231      C2232   1.423       .  A
C2231     Br2240   1.940       .  S
C2232     Br2236   1.942       .  S
C2241      C2242   1.407       .  A
C2241      C2246   1.409       .  A
C2242      C2243   1.402       .  A
C2242     Br2254   1.927       .  S
C2243      C2244   1.408       .  A
C2243     Br2258   1.931       .  S
C2244      C2247   1.468       .  S
C2244      C2245   1.406       .  A
C2245      C2246   1.398       .  A
C2245     Br2253   1.933   1_556  S
C2246     Br2257   1.931   1_556  S
C2247      C2248   1.400       .  A
C2247      C2252   1.398       .  A
C2248      C2249   1.403       .  A
C2248     Br2259   1.937       .  S
C2249      C2250   1.432       .  A
C2249     Br2255   1.943       .  S
C2250      C2251   1.436       .  A
C2251      C2252   1.403       .  A
C2251     Br2260   1.945       .  S
C2252     Br2256   1.939       .  S
C2261      C2262   1.426   1_554  A
C2261      C2266   1.419       .  A
C2262      C2263   1.404       .  A
C2262     Br2274   1.937       .  S
C2263      C2264   1.403       .  A
C2263     Br2278   1.937       .  S
C2264      C2267   1.471       .  S
C2264      C2265   1.403   1_556  A
C2265      C2266   1.403       .  A
C2265     Br2273   1.931       .  S
C2266     Br2277   1.935       .  S
C2267      C2268   1.410       .  A
C2267      C2272   1.407       .  A
C2268      C2269   1.402       .  A
C2268     Br2279   1.929       .  S
C2269      C2270   1.406       .  A
C2269     Br2275   1.929       .  S
C2270      C2271   1.409       .  A
C2271      C2272   1.400       .  A
C2271     Br2280   1.931   1_556  S
C2272     Br2276   1.931   1_556  S
C2281      C2282   1.408       .  A
C2281      C2286   1.412       .  A
C2282      C2283   1.404       .  A
C2282     Br2294   1.929       .  S
C2283      C2284   1.410       .  A
C2283     Br2298   1.931       .  S
C2284      C2287   1.476       .  S
C2284      C2285   1.407       .  A
C2285      C2286   1.402       .  A
C2285     Br2293   1.930   1_556  S
C2286     Br2297   1.932   1_556  S
C2287      C2288   1.402       .  A
C2287      C2292   1.403       .  A
C2288      C2289   1.403       .  A
C2288     Br2299   1.933       .  S
C2289      C2290   1.424       .  A
C2289     Br2295   1.933       .  S
C2290      C2291   1.424   1_556  A
C2291      C2292   1.406   1_554  A
C2291     Br2300   1.935       .  S
C2292     Br2296   1.932   1_556  S
C2301      C2302   1.411       .  A
C2301      C2306   1.405       .  A
C2302      C2303   1.401       .  A
C2302     Br2314   1.931   1_556  S
C2303      C2304   1.405       .  A
C2303     Br2318   1.931   1_556  S
C2304      C2307   1.469       .  S
C2304      C2305   1.409       .  A
C2305      C2306   1.400       .  A
C2305     Br2313   1.930       .  S
C2306     Br2317   1.929       .  S
C2307      C2308   1.404   1_556  A
C2307      C2312   1.400       .  A
C2308      C2309   1.405       .  A
C2308     Br2319   1.931       .  S
C2309      C2310   1.420   1_554  A
C2309     Br2315   1.935       .  S
C2310      C2311   1.422       .  A
C2311      C2312   1.398       .  A
C2311     Br2320   1.935       .  S
C2312     Br2316   1.934       .  S
C2321      C2322   1.446       .  A
C2322      C2323   1.433       .  A
C2322     Br2334   1.923       .  S
C2323      C2324   1.411       .  A
C2323     Br2338   1.927       .  S
C2324      C2327   1.522       .  S
C2325      C2326   1.416       .  A
C2325     Br2333   1.934       .  S
C2326     Br2337   1.930       .  S
C2327      C2328   1.420       .  A
C2327      C2332   1.412       .  A
C2328      C2329   1.424       .  A
C2328     Br2339   1.920       .  S
C2329      C2330   1.413       .  A
C2329     Br2335   1.929       .  S
C2330      C2331   1.420       .  A
C2331      C2332   1.416       .  A
C2331     Br2340   1.923       .  S
C2341      C2342   1.416       .  A
C2342      C2343   1.409       .  A
C2342     Br2354   1.923       .  S
C2343      C2344   1.408       .  A
C2343     Br2358   1.933       .  S
C2344      C2347   1.512       .  S
C2345      C2346   1.423       .  A
C2345     Br2353   1.922       .  S
C2346     Br2357   1.925       .  S
C2347      C2348   1.401       .  A
C2348      C2349   1.417       .  A
C2348     Br2359   1.937       .  S
C2349      C2350   1.449       .  A
C2349     Br2355   1.927       .  S
C2351      C2352   1.429       .  A
C2351     Br2360   1.919       .  S
C2352     Br2356   1.934       .  S
C2361      C2362   1.420       .  A
C2362      C2363   1.407       .  A
C2362     Br2374   1.913       .  S
C2363      C2364   1.403       .  A
C2363     Br2378   1.936       .  S
C2364      C2367   1.508       .  S
C2365      C2366   1.424       .  A
C2365     Br2373   1.927       .  S
C2366     Br2377   1.926       .  S
C2367      C2372   1.398       .  A
C2368      C2369   1.420       .  A
C2368     Br2379   1.951       .  S
C2369      C2370   1.471       .  A
C2369     Br2375   1.946       .  S
C2371      C2372   1.424       .  A
C2371     Br2380   1.930       .  S
C2372     Br2376   1.937       .  S
C2381      C2386   1.412       .  A
C2382      C2383   1.415       .  A
C2382     Br2394   1.928       .  S
C2383     Br2398   1.929       .  S
C2384      C2387   1.508       .  S
C2384      C2385   1.413       .  A
C2385      C2386   1.414       .  A
C2385     Br2393   1.928       .  S
C2386     Br2397   1.925       .  S
C2387      C2392   1.395       .  A
C2388      C2389   1.430       .  A
C2388     Br2399   1.938       .  S
C2389      C2390   1.457   1_455  A
C2389     Br2395   1.940   1_455  S
C2391      C2392   1.415       .  A
C2391     Br2400   1.938       .  S
C2392     Br2396   1.944       .  S
C2401      C2402   1.422       .  A
C2401      C2406   1.413       .  A
C2402      C2403   1.419       .  A
C2402     Br2414   1.932       .  S
C2403      C2404   1.412       .  A
C2403     Br2418   1.931       .  S
C2404      C2407   1.522       .  S
C2404      C2405   1.421       .  A
C2405      C2406   1.422       .  A
C2405     Br2413   1.927       .  S
C2406     Br2417   1.929       .  S
C2407      C2408   1.412       .  A
C2407      C2412   1.395       .  A
C2408      C2409   1.436       .  A
C2408     Br2419   1.933       .  S
C2409      C2410   1.455       .  A
C2409     Br2415   1.931       .  S
C2410      C2411   1.456       .  A
C2411      C2412   1.414       .  A
C2411     Br2420   1.926       .  S
C2412     Br2416   1.939       .  S
C2421      C2422   1.440       .  A
C2421      C2426   1.422       .  A
C2422      C2423   1.410       .  A
C2422     Br2434   1.932       .  S
C2423      C2424   1.398       .  A
C2423     Br2438   1.940       .  S
C2424      C2427   1.503       .  S
C2424      C2425   1.413       .  A
C2425      C2426   1.422       .  A
C2425     Br2433   1.929       .  S
C2426     Br2437   1.928       .  S
C2427      C2428   1.390       .  A
C2427      C2432   1.401       .  A
C2428      C2429   1.409       .  A
C2428     Br2439   1.943       .  S
C2429      C2430   1.469       .  A
C2429     Br2435   1.950       .  S
C2430      C2431   1.458       .  A
C2431      C2432   1.428       .  A
C2431     Br2440   1.932       .  S
C2432     Br2436   1.937       .  S
C2441      C2442   1.444       .  A
C2441      C2446   1.447       .  A
C2442      C2443   1.429       .  A
C2442     Br2454   1.920       .  S
C2443      C2444   1.409       .  A
C2443     Br2458   1.931       .  S
C2444      C2447   1.512       .  S
C2444      C2445   1.399       .  A
C2445      C2446   1.415       .  A
C2445     Br2453   1.939       .  S
C2446     Br2457   1.924       .  S
C2447      C2448   1.404       .  A
C2447      C2452   1.414       .  A
C2448      C2449   1.413       .  A
C2448     Br2459   1.942       .  S
C2449      C2450   1.441       .  A
C2449     Br2455   1.943       .  S
C2450      C2451   1.423       .  A
C2451      C2452   1.425       .  A
C2451     Br2460   1.926       .  S
C2452     Br2456   1.927       .  S
C2461      C2462   1.445       .  A
C2461      C2466   1.442       .  A
C2462      C2463   1.412       .  A
C2462     Br2474   1.928       .  S
C2463      C2464   1.398       .  A
C2463     Br2478   1.936       .  S
C2464      C2467   1.509       .  S
C2464      C2465   1.409       .  A
C2465      C2466   1.428       .  A
C2465     Br2473   1.931       .  S
C2466     Br2477   1.918       .  S
C2467      C2468   1.413       .  A
C2467      C2472   1.405       .  A
C2468      C2469   1.421       .  A
C2468     Br2479   1.925       .  S
C2469      C2470   1.423       .  A
C2469     Br2475   1.932       .  S
C2470      C2471   1.435       .  A
C2471      C2472   1.412       .  A
C2471     Br2480   1.940       .  S
C2472     Br2476   1.939       .  S
C2481      C2482   1.408       .  A
C2481      C2486   1.405       .  A
C2482      C2483   1.405       .  A
C2482     Br2494   1.926       .  S
C2483      C2484   1.411       .  A
C2483     Br2498   1.929       .  S
C2484      C2487   1.478       .  S
C2484      C2485   1.410       .  A
C2485      C2486   1.400       .  A
C2485     Br2493   1.932       .  S
C2486     Br2497   1.926       .  S
C2487      C2488   1.410       .  A
C2487      C2492   1.411       .  A
C2488      C2489   1.400       .  A
C2488     Br2499   1.933       .  S
C2489      C2490   1.412       .  A
C2489     Br2495   1.934       .  S
C2490      C2491   1.410       .  A
C2491      C2492   1.403       .  A
C2491     Br2500   1.930       .  S
C2492     Br2496   1.931       .  S
C2501      C2502   1.407       .  A
C2501      C2506   1.409       .  A
C2502      C2503   1.402       .  A
C2502     Br2514   1.929       .  S
C2503      C2504   1.408       .  A
C2503     Br2518   1.928       .  S
C2504      C2507   1.472       .  S
C2504      C2505   1.407       .  A
C2505      C2506   1.401       .  A
C2505     Br2513   1.931       .  S
C2506     Br2517   1.932       .  S
C2507      C2508   1.401       .  A
C2507      C2512   1.399       .  A
C2508      C2509   1.403       .  A
C2508     Br2519   1.939       .  S
C2509      C2510   1.430       .  A
C2509     Br2515   1.939       .  S
C2510      C2511   1.432       .  A
C2511      C2512   1.408       .  A
C2511     Br2520   1.933       .  S
C2512     Br2516   1.935       .  S
C2521      C2522   1.408       .  A
C2521      C2526   1.409       .  A
C2522      C2523   1.402       .  A
C2522     Br2534   1.930       .  S
C2523      C2524   1.408       .  A
C2523     Br2538   1.931       .  S
C2524      C2527   1.477       .  S
C2524      C2525   1.409       .  A
C2525      C2526   1.406       .  A
C2525     Br2533   1.930       .  S
C2526     Br2537   1.924       .  S
C2527      C2528   1.409       .  A
C2527      C2532   1.408       .  A
C2528      C2529   1.405       .  A
C2528     Br2539   1.931       .  S
C2529      C2530   1.412       .  A
C2529     Br2535   1.931       .  S
C2530      C2531   1.409       .  A
C2531      C2532   1.400       .  A
C2531     Br2540   1.932       .  S
C2532     Br2536   1.930       .  S
C2541      C2542   1.410       .  A
C2541      C2546   1.412       .  A
C2542      C2543   1.400       .  A
C2542     Br2554   1.925       .  S
C2543      C2544   1.405       .  A
C2543     Br2558   1.931       .  S
C2544      C2547   1.471       .  S
C2544      C2545   1.407       .  A
C2545      C2546   1.404       .  A
C2545     Br2553   1.931       .  S
C2546     Br2557   1.928       .  S
C2547      C2548   1.409       .  A
C2547      C2552   1.410       .  A
C2548      C2549   1.397       .  A
C2548     Br2559   1.931       .  S
C2549      C2550   1.405       .  A
C2549     Br2555   1.932       .  S
C2550      C2551   1.407       .  A
C2551      C2552   1.404       .  A
C2551     Br2560   1.929       .  S
C2552     Br2556   1.929       .  S
C2561      C2562   1.418       .  A
C2561      C2566   1.413       .  A
C2562      C2563   1.414       .  A
C2562     Br2574   1.934       .  S
C2563      C2564   1.413       .  A
C2563     Br2578   1.932       .  S
C2564      C2567   1.518       .  S
C2564      C2565   1.419       .  A
C2565      C2566   1.422       .  A
C2565     Br2573   1.920       .  S
C2566     Br2577   1.930       .  S
C2567      C2568   1.399       .  A
C2567      C2572   1.411       .  A
C2568      C2569   1.412       .  A
C2568     Br2579   1.935       .  S
C2569      C2570   1.447       .  A
C2569     Br2575   1.934       .  S
C2570      C2571   1.448       .  A
C2571      C2572   1.435       .  A
C2571     Br2580   1.922       .  S
C2572     Br2576   1.927       .  S
C2581      C2582   1.425       .  A
C2581      C2586   1.448       .  A
C2582      C2583   1.423       .  A
C2582     Br2594   1.930       .  S
C2583      C2584   1.413       .  A
C2583     Br2598   1.928       .  S
C2584      C2587   1.511       .  S
C2584      C2585   1.403       .  A
C2585      C2586   1.413       .  A
C2585     Br2593   1.943       .  S
C2586     Br2597   1.952       .  S
C2587      C2588   1.410       .  A
C2587      C2592   1.400       .  A
C2588      C2589   1.426       .  A
C2588     Br2599   1.934       .  S
C2589      C2590   1.443       .  A
C2589     Br2595   1.916       .  S
C2590      C2591   1.448       .  A
C2591      C2592   1.415       .  A
C2591     Br2600   1.927       .  S
C2592     Br2596   1.939       .  S
C2601      C2602   1.455       .  A
C2601      C2606   1.460       .  A
C2602      C2603   1.427       .  A
C2602     Br2614   1.939       .  S
C2603      C2604   1.405       .  A
C2603     Br2618   1.935       .  S
C2604      C2607   1.507       .  S
C2604      C2605   1.393       .  A
C2605      C2606   1.414       .  A
C2605     Br2613   1.939       .  S
C2606     Br2617   1.932       .  S
C2607      C2608   1.417       .  A
C2607      C2612   1.408       .  A
C2608      C2609   1.416       .  A
C2608     Br2619   1.921       .  S
C2609      C2610   1.410       .  A
C2609     Br2615   1.931       .  S
C2610      C2611   1.420       .  A
C2611      C2612   1.412       .  A
C2611     Br2620   1.925       .  S
C2612     Br2616   1.933       .  S
C2621      C2622   1.416       .  A
C2621      C2626   1.413       .  A
C2622      C2623   1.408       .  A
C2622     Br2634   1.925       .  S
C2623      C2624   1.408       .  A
C2623     Br2638   1.932       .  S
C2624      C2627   1.512       .  S
C2624      C2625   1.419       .  A
C2625      C2626   1.425       .  A
C2625     Br2633   1.926       .  S
C2626     Br2637   1.925       .  S
C2627      C2628   1.400       .  A
C2627      C2632   1.397       .  A
C2628      C2629   1.427       .  A
C2628     Br2639   1.937       .  S
C2629      C2630   1.458       .  A
C2629     Br2635   1.938       .  S
C2630      C2631   1.471       .  A
C2631      C2632   1.422       .  A
C2631     Br2640   1.947       .  S
C2632     Br2636   1.956       .  S
