geometry optimzed in LAMMPS
_audit_creation_date              2020-12-01 
_audit_creation_method            'lammps2cif' 
_symmetry_space_group_name_H-M    'P1' 
_symmetry_Int_Tables_number       1 
_symmetry_cell_setting            triclinic 
loop_ 
_symmetry_equiv_pos_as_xyz 
  x,y,z 
_cell_length_a                    46.50935858 
_cell_length_b                    45.668015827951095 
_cell_length_c                    36.62183413255092 
_cell_angle_alpha                 90.57879739687172 
_cell_angle_beta                  89.69017579922696 
_cell_angle_gamma                 87.75001748711723 
loop_ 
_atom_site_label 
_atom_site_type_symbol 
_atom_site_fract_x 
_atom_site_fract_y 
_atom_site_fract_z 
_atom_site_charge 
C1          C  0.24970179  0.36566011  0.87201720     0.86300
C2          C  0.21980710  0.36480934  0.85360742    -0.53900
C3          C  0.21431872  0.33834243  0.83813191     0.09300
C4          C  0.23839951  0.31503462  0.84422334     0.20200
C5          C  0.24924760  0.34045037  0.90008465    -0.54600
C6          C  0.24448805  0.31396624  0.88504977     0.09400
C7          C  0.27110617  0.35458940  0.84195266    -0.54200
C8          C  0.26535942  0.32770100  0.82668273     0.09900
H9          H  0.20511529  0.38354244  0.85049116     0.14400
H10         H  0.23147992  0.29364307  0.83621569     0.00200
H11         H  0.25422156  0.34273624  0.92887411     0.14800
H12         H  0.28847796  0.36794955  0.83290540     0.14500
C13         C  0.36204343  0.23960880  0.67008756     0.86300
C14         C  0.36067517  0.21543125  0.69952900    -0.53900
C15         C  0.33519439  0.21549597  0.71803083     0.09300
C16         C  0.31391909  0.23937204  0.70588406     0.20200
C17         C  0.33519508  0.23680489  0.64562395    -0.54600
C18         C  0.31010779  0.23649003  0.66470953     0.09400
C19         C  0.35447269  0.26880296  0.69157591    -0.54200
C20         C  0.32899982  0.26851728  0.71080498     0.09900
H21         H  0.37831807  0.19987775  0.70509610     0.14400
H22         H  0.29362427  0.23730158  0.72081105     0.00200
H23         H  0.33599106  0.23578167  0.61602091     0.14800
H24         H  0.36646188  0.28840358  0.68909902     0.14500
C25         C  0.24387937  0.14078632  0.88017043     0.86300
C26         C  0.27027766  0.14349795  0.85413099    -0.53900
C27         C  0.27022525  0.16884543  0.83479047     0.09300
C28         C  0.24441762  0.18992632  0.84439812     0.20200
C29         C  0.24536008  0.16846053  0.90475357    -0.54600
C30         C  0.24502890  0.19428766  0.88641169     0.09400
C31         C  0.21793906  0.14589219  0.85436953    -0.54200
C32         C  0.21757524  0.17210375  0.83679203     0.09900
H33         H  0.28782489  0.12755423  0.85034969     0.14400
H34         H  0.24454467  0.21059449  0.82897882    -0.01000
H35         H  0.24775408  0.16736317  0.93418450     0.14800
H36         H  0.20088279  0.13048860  0.85134773     0.14500
C37         C  0.13845589  0.25739710  0.67070463     0.86300
C38         C  0.14286131  0.28484986  0.69470702    -0.53900
C39         C  0.16730786  0.28353022  0.71514740     0.09300
C40         C  0.18475610  0.25401201  0.71052888     0.20200
C41         C  0.16665146  0.25191572  0.64869309    -0.54600
C42         C  0.19085290  0.25004619  0.66941197     0.09400
C43         C  0.13861074  0.23279617  0.69985010    -0.54200
C44         C  0.16324341  0.23020889  0.71969471     0.09900
H45         H  0.12720427  0.30296155  0.69718659     0.14400
H46         H  0.20445368  0.25252146  0.72723558     0.00200
H47         H  0.16721107  0.24888129  0.61924227     0.14800
H48         H  0.11989257  0.22068847  0.70725201     0.14500
C49         C  0.36363575  0.24127273  0.36844109     0.86300
C50         C  0.36719108  0.26574039  0.34030821    -0.53900
C51         C  0.34687282  0.26673217  0.31397672     0.09300
C52         C  0.32483511  0.24307723  0.31765927     0.20200
C53         C  0.33199773  0.24630307  0.38306931    -0.54600
C54         C  0.31112808  0.24737828  0.35635100     0.09400
C55         C  0.36123345  0.21225932  0.34683468    -0.54200
C56         C  0.34128814  0.21326101  0.31973631     0.09900
H57         H  0.38394784  0.28157970  0.34202474     0.14400
H58         H  0.31018557  0.24449568  0.29397273     0.00200
H59         H  0.32684050  0.24609765  0.41168834     0.14800
H60         H  0.37046235  0.19157954  0.35626810     0.14500
C61         C  0.25402438  0.35739973  0.17032971     0.86300
C62         C  0.28330796  0.35443185  0.18993636    -0.53900
C63         C  0.28455743  0.33336998  0.21587433     0.09300
C64         C  0.25576845  0.31829943  0.22183039     0.20200
C65         C  0.24722235  0.32616555  0.15719775    -0.54600
C66         C  0.24789409  0.30571052  0.18421167     0.09400
C67         C  0.23247308  0.36375621  0.20234334    -0.54200
C68         C  0.23290114  0.34309496  0.22894516     0.09900
H69         H  0.30151680  0.36769859  0.18398307     0.14400
H70         H  0.25707873  0.30152755  0.24339455     0.00200
H71         H  0.24353683  0.32071781  0.12876537     0.14800
H72         H  0.21734858  0.38238807  0.20400264     0.14500
C73         C  0.13282443  0.26805591  0.37013752     0.86300
C74         C  0.12642101  0.24251994  0.34387815    -0.53900
C75         C  0.14427078  0.23994745  0.31456030     0.09300
C76         C  0.16629902  0.26390886  0.31332158     0.20200
C77         C  0.16550301  0.26367867  0.37915989    -0.54600
C78         C  0.18385311  0.26132747  0.34909119     0.09400
C79         C  0.13303727  0.29604760  0.34629950    -0.54200
C80         C  0.15044598  0.29363614  0.31644631     0.09900
H81         H  0.11037948  0.22649233  0.34957202     0.14400
H82         H  0.17679121  0.26331334  0.28715652     0.00200
H83         H  0.17321348  0.26373890  0.40681062     0.14800
H84         H  0.12576471  0.31759939  0.35606890     0.14500
C85         C  0.23582754  0.12766581  0.18963684     0.86300
C86         C  0.20883289  0.13206438  0.21412978    -0.53900
C87         C  0.20922292  0.15593918  0.23675827     0.09300
C88         C  0.23739413  0.17264488  0.23362853     0.20200
C89         C  0.23935781  0.15723356  0.17010655    -0.54600
C90         C  0.23976260  0.18086739  0.19300434     0.09400
C91         C  0.26162126  0.12667356  0.21682441    -0.54200
C92         C  0.26214006  0.14995775  0.24033028     0.09900
H93         H  0.18999005  0.11891708  0.21134662     0.14400
H94         H  0.23858208  0.19155496  0.25190603     0.00200
H95         H  0.24157024  0.15925357  0.14072138     0.14800
H96         H  0.27931935  0.11058099  0.21654766     0.14500
O97         O  0.22362479  0.02976965  0.99022129    -0.71900
O98         O  0.22908772  0.46656002  0.05450501    -0.72200
O99         O  0.22021667  0.02516750  0.06309602    -0.72000
O100        O  0.23430918  0.47181862  0.98189196    -0.72000
O101        O  0.28072923  0.47158309  0.98768463    -0.72000
O102        O  0.26672478  0.02690683  0.06617278    -0.72000
O103        O  0.27538709  0.46671550  0.06030917    -0.71900
O104        O  0.27017548  0.03073598  0.99286856    -0.72100
V105        V  0.22498628  0.99822979  0.02348471     1.35200
V106        V  0.26964908  0.99955458  0.02690551     1.35200
C107        C  0.24676639  0.04058338  0.97951083     0.77300
C108        C  0.25168775  0.45564036  0.06858304     0.77400
C109        C  0.24220617  0.03520905  0.07815746     0.77200
C110        C  0.25896825  0.46229470  0.97149553     0.77200
O111        O  0.02912167  0.23416509  0.55941506    -0.71900
O112        O  0.47280927  0.22742465  0.48195545    -0.72200
O113        O  0.03043141  0.23924075  0.48694566    -0.72000
O114        O  0.47231440  0.22367869  0.55523407    -0.72000
O115        O  0.46867713  0.27087880  0.56230822    -0.72000
O116        O  0.02365579  0.28641627  0.49015976    -0.72000
O117        O  0.46456868  0.27421511  0.48935439    -0.71900
O118        O  0.02611837  0.28149524  0.56299099    -0.72100
V119        V  0.50122484  0.22904395  0.51906156     1.35200
V120        V  0.49544704  0.27440414  0.52343103     1.35200
C121        C  0.03788036  0.25752086  0.57339052     0.77300
C122        C  0.45809190  0.25037204  0.47414533     0.77400
C123        C  0.03741731  0.26439723  0.47669704     0.77200
C124        C  0.46109358  0.24581540  0.57181821     0.77200
C125        C  0.21908291  0.08007314  0.10451778    -0.05900
C126        C  0.23916826  0.05676609  0.10839221     0.00000
C127        C  0.25506026  0.05420578  0.14099196    -0.08600
C128        C  0.25131203  0.07623202  0.16785008    -0.06000
C129        C  0.23366459  0.10175725  0.16255212     0.00000
C130        C  0.21538685  0.10240238  0.13105646    -0.08500
C131        C  0.19179666  0.12541925  0.12231669     0.61900
H132        H  0.20627292  0.08112205  0.07984374     0.12600
H133        H  0.26246060  0.07312206  0.19321215     0.12600
C134        C  0.27594253  0.02834297  0.14755389     0.62100
F135        F  0.19980254  0.14068096  0.09169613    -0.23000
F136        F  0.18544475  0.14534884  0.14987471    -0.20400
F137        F  0.16661701  0.11144054  0.11462679    -0.20000
F138        F  0.29950001  0.03011444  0.12460435    -0.20100
F139        F  0.26255164  0.00231225  0.14092238    -0.20400
F140        F  0.28588204  0.02781007  0.18312170    -0.23100
C141        C  0.15614812  0.18627008  0.30808360    -0.05900
C142        C  0.14820717  0.21291940  0.29118131     0.00000
C143        C  0.15219450  0.21494299  0.25294573    -0.08600
C144        C  0.16984740  0.19364271  0.23490165    -0.06000
C145        C  0.18257220  0.16988744  0.25352412     0.00000
C146        C  0.17250750  0.16406713  0.28927870    -0.08500
C147        C  0.17782296  0.13510281  0.30835494     0.61900
H148        H  0.15150981  0.18358864  0.33685582     0.12600
H149        H  0.17531331  0.19666184  0.20656194     0.12600
C150        C  0.14086736  0.24071904  0.23109687     0.62100
F151        F  0.19170549  0.13951025  0.34111185    -0.23000
F152        F  0.19395576  0.11512670  0.28744886    -0.20400
F153        F  0.15160197  0.12304717  0.31562487    -0.20000
F154        F  0.16337380  0.25827225  0.22247359    -0.20100
F155        F  0.12001029  0.25709598  0.25010423    -0.20400
F156        F  0.12869576  0.23084777  0.19909837    -0.23100
C157        C  0.08677202  0.28949295  0.40007111    -0.05900
C158        C  0.11057679  0.26908667  0.40213422     0.00000
C159        C  0.10939440  0.24710299  0.42978225    -0.08600
C160        C  0.08521185  0.24702728  0.45332057    -0.06000
C161        C  0.06206066  0.26750887  0.45090440     0.00000
C162        C  0.06303047  0.28954920  0.42417621    -0.08500
C163        C  0.03860038  0.31243119  0.41989418     0.61900
H164        H  0.08560347  0.30495071  0.37815716     0.12600
H165        H  0.08437237  0.23091627  0.47475186     0.12600
C166        C  0.13338061  0.22407883  0.43669546     0.62100
F167        F  0.04234774  0.32988873  0.38967295    -0.23000
F168        F  0.03718438  0.33063422  0.45030992    -0.20400
F169        F  0.01275406  0.29877359  0.41587538    -0.20000
F170        F  0.15569057  0.23693864  0.45477428    -0.20100
F171        F  0.14342820  0.21105229  0.40472440    -0.20400
F172        F  0.12405076  0.20171223  0.45853025    -0.23100
C173        C  0.26934915  0.25603423  0.18784249    -0.05900
C174        C  0.24543996  0.27353221  0.17825173     0.00000
C175        C  0.22025442  0.25968955  0.16634732    -0.08600
C176        C  0.21927119  0.22873180  0.16906546    -0.06000
C177        C  0.24333999  0.21161203  0.18054063     0.00000
C178        C  0.26953927  0.22558398  0.18535225    -0.08500
C179        C  0.29842107  0.20991464  0.18781095     0.61900
H180        H  0.28832130  0.26606678  0.19798475     0.12600
H181        H  0.19979227  0.21780098  0.16234145     0.12600
C182        C  0.19456512  0.27727734  0.15182252     0.62100
F183        F  0.31702969  0.22164818  0.16276991    -0.23000
F184        F  0.29717841  0.18038989  0.18005518    -0.20400
F185        F  0.30903010  0.21440909  0.22234895    -0.20000
F186        F  0.20182857  0.28996495  0.11914099    -0.20100
F187        F  0.18613064  0.29899585  0.17649944    -0.20400
F188        F  0.17132532  0.25990221  0.14556411    -0.23100
C189        C  0.19102500  0.32639787  0.31527939    -0.05900
C190        C  0.16463045  0.31904745  0.29997541     0.00000
C191        C  0.15820591  0.32843652  0.26420676    -0.08600
C192        C  0.18052025  0.33905017  0.24246089    -0.06000
C193        C  0.20872293  0.34076646  0.25583602     0.00000
C194        C  0.21313677  0.33751500  0.29379323    -0.08500
C195        C  0.24124529  0.34429221  0.31163245     0.61900
H196        H  0.19541169  0.32057545  0.34336240     0.12600
H197        H  0.17617645  0.34443344  0.21423399     0.12600
C198        C  0.12833214  0.32780594  0.24816230     0.62100
F199        F  0.26001230  0.32019737  0.30862361    -0.23000
F200        F  0.23728205  0.35100407  0.34830826    -0.20400
F201        F  0.25276481  0.36836243  0.29527790    -0.20000
F202        F  0.11937559  0.35604990  0.23918632    -0.20100
F203        F  0.10847299  0.31709167  0.27235010    -0.20400
F204        F  0.12881801  0.31069673  0.21680949    -0.23100
C205        C  0.27556032  0.41154594  0.09510423    -0.05900
C206        C  0.25074174  0.42986808  0.09304666     0.00000
C207        C  0.22576685  0.42215551  0.11266164    -0.08600
C208        C  0.22723029  0.39702597  0.13452526    -0.06000
C209        C  0.25286078  0.38000211  0.13925050     0.00000
C210        C  0.27648098  0.38569679  0.11557505    -0.08500
C211        C  0.30242160  0.36510105  0.10848723     0.61900
H212        H  0.29427850  0.41670383  0.07897884     0.12600
H213        H  0.20782581  0.39041999  0.14782817     0.12600
C214        C  0.19781196  0.44060955  0.11201572     0.62100
F215        F  0.29839761  0.33710657  0.12045506    -0.23000
F216        F  0.32642533  0.37613381  0.12502626    -0.20400
F217        F  0.30766758  0.36292291  0.07127312    -0.20000
F218        F  0.18545677  0.43893018  0.07783807    -0.20100
F219        F  0.20318076  0.46947213  0.12049794    -0.20400
F220        F  0.17796102  0.43118839  0.13720673    -0.23100
C221        C  0.26330409  0.23865305  0.33117558    -0.05900
C222        C  0.27835046  0.24929875  0.36094343     0.00000
C223        C  0.26127943  0.26293945  0.38945633    -0.08600
C224        C  0.23080192  0.26621571  0.38458934    -0.06000
C225        C  0.21685332  0.25865341  0.35155677     0.00000
C226        C  0.23532424  0.24784900  0.32284209    -0.08500
C227        C  0.22846681  0.24746772  0.28253917     0.61900
H228        H  0.27407335  0.22419929  0.31194415     0.12600
H229        H  0.21790855  0.27571424  0.40654154     0.12600
C230        C  0.27381887  0.27224613  0.42573913     0.62100
F231        F  0.25229031  0.24012724  0.26111925    -0.23000
F232        F  0.21953989  0.27505236  0.27143249    -0.20400
F233        F  0.20825165  0.22713663  0.27584101    -0.20000
F234        F  0.29581620  0.29118528  0.42047732    -0.20100
F235        F  0.28390201  0.24770178  0.44417961    -0.20400
F236        F  0.25343883  0.28656161  0.44791248    -0.23100
C237        C  0.30335260  0.17694728  0.32266223    -0.05900
C238        C  0.32795114  0.18650267  0.30490155     0.00000
C239        C  0.33526311  0.17451689  0.27027125    -0.08600
C240        C  0.31468894  0.15793819  0.25165486    -0.06000
C241        C  0.28666028  0.15556501  0.26585539     0.00000
C242        C  0.28216456  0.16210019  0.30337752    -0.08500
C243        C  0.25497182  0.15415670  0.32292351     0.61900
H244        H  0.29903587  0.18444850  0.35038568     0.12600
H245        H  0.31941315  0.14955283  0.22450532     0.12600
C246        C  0.36375438  0.18099480  0.25244450     0.62100
F247        F  0.25849527  0.15448141  0.36044132    -0.23000
F248        F  0.24767580  0.12622015  0.31259684    -0.20400
F249        F  0.23301010  0.17403345  0.31444848    -0.20000
F250        F  0.38602183  0.17169407  0.27490754    -0.20100
F251        F  0.36547048  0.21076886  0.24701989    -0.20400
F252        F  0.36715883  0.16689835  0.21897580    -0.23100
C253        C  0.34473499  0.28478998  0.25001614    -0.05900
C254        C  0.34213052  0.29106912  0.28757454     0.00000
C255        C  0.32889833  0.31823684  0.29866110    -0.08600
C256        C  0.31291229  0.33450322  0.27282673    -0.06000
C257        C  0.31097768  0.32493415  0.23665626     0.00000
C258        C  0.33083043  0.30289776  0.22397816    -0.08500
C259        C  0.33922414  0.30067231  0.18391903     0.61900
H260        H  0.35708914  0.26541188  0.24127305     0.12600
H261        H  0.30060587  0.35393817  0.28106848     0.12600
C262        C  0.33053870  0.32941013  0.33762603     0.62100
F263        F  0.36055987  0.27916046  0.17785093    -0.23000
F264        F  0.34970834  0.32718058  0.17316228    -0.20400
F265        F  0.31607555  0.29451137  0.16226613    -0.20000
F266        F  0.35902144  0.33181080  0.34738037    -0.20100
F267        F  0.31757004  0.31037539  0.36080912    -0.20400
F268        F  0.31689961  0.35672122  0.34199596    -0.23100
C269        C  0.38393611  0.25674284  0.42984748    -0.05900
C270        C  0.38861776  0.24164094  0.39629002     0.00000
C271        C  0.41766790  0.23166657  0.38774368    -0.08600
C272        C  0.43919370  0.23459569  0.41442677    -0.06000
C273        C  0.43394435  0.24897470  0.44779072     0.00000
C274        C  0.40592092  0.26052406  0.45565348    -0.08500
C275        C  0.39903855  0.27638757  0.49150401     0.61900
H276        H  0.36313251  0.26699918  0.43555944     0.12600
H277        H  0.46082476  0.22581129  0.40921079     0.12600
C278        C  0.42721106  0.21727037  0.35154899     0.62100
F279        F  0.36995298  0.28349027  0.49526915    -0.23000
F280        F  0.41369848  0.30211402  0.49325872    -0.20400
F281        F  0.40710648  0.25872162  0.52043075    -0.20000
F282        F  0.45667662  0.21852781  0.34647307    -0.20100
F283        F  0.41463937  0.23105242  0.32196912    -0.20400
F284        F  0.42064079  0.18804008  0.35140402    -0.23100
C285        C  0.09647553  0.23298319  0.64072644    -0.05900
C286        C  0.11190822  0.25877346  0.64550611     0.00000
C287        C  0.10330427  0.28365190  0.62410449    -0.08600
C288        C  0.07788257  0.28258791  0.60342897    -0.06000
C289        C  0.06229518  0.25703901  0.59972914     0.00000
C290        C  0.07172857  0.23164898  0.61901983    -0.08500
C291        C  0.05599022  0.20302960  0.61740276     0.61900
H292        H  0.10455923  0.21289781  0.65276118     0.12600
H293        H  0.07075469  0.30184271  0.58841537     0.12600
C294        C  0.11982049  0.31173789  0.62113998     0.62100
F295        F  0.05895092  0.19047110  0.58300334    -0.23000
F296        F  0.02714398  0.20828555  0.62551215    -0.20400
F297        F  0.06673717  0.18279481  0.64227462    -0.20000
F298        F  0.10885755  0.33220830  0.64611648    -0.20100
F299        F  0.11678600  0.32341791  0.58654200    -0.20400
F300        F  0.14896739  0.30729184  0.62653562    -0.23100
C301        C  0.18493862  0.16650626  0.78237881    -0.05900
C302        C  0.19391417  0.18315416  0.81233684     0.00000
C303        C  0.18302397  0.21223365  0.81556911    -0.08600
C304        C  0.17210933  0.22631746  0.78488953    -0.06000
C305        C  0.16726380  0.21121250  0.75240307     0.00000
C306        C  0.17031162  0.17988412  0.75268189    -0.08500
C307        C  0.15928290  0.15928330  0.72366370     0.61900
H308        H  0.19023041  0.14319193  0.78144090     0.12600
H309        H  0.16727746  0.24949701  0.78657265     0.12600
C310        C  0.18093794  0.22840753  0.85129877     0.62100
F311        F  0.18201248  0.14280022  0.70855680    -0.23000
F312        F  0.14451691  0.17339567  0.69606951    -0.20400
F313        F  0.14069576  0.14034710  0.73991288    -0.20000
F314        F  0.20132727  0.24949958  0.85222581    -0.20100
F315        F  0.18460682  0.20925465  0.87980545    -0.20400
F316        F  0.15386300  0.24177694  0.85518700    -0.23100
C317        C  0.22361460  0.08570089  0.95548946    -0.05900
C318        C  0.24595008  0.06449687  0.95243671     0.00000
C319        C  0.26512697  0.06547604  0.92248876    -0.08600
C320        C  0.26286185  0.08953344  0.89873168    -0.06000
C321        C  0.24196080  0.11272747  0.90337764     0.00000
C322        C  0.22045603  0.10923527  0.93121461    -0.08500
C323        C  0.19302930  0.12806245  0.93766546     0.61900
H324        H  0.20803583  0.08376253  0.97743155     0.12600
H325        H  0.27756580  0.08950686  0.87611806     0.12600
C326        C  0.28703344  0.04056668  0.91454569     0.62100
F327        F  0.19298758  0.13917020  0.97295057    -0.23000
F328        F  0.16963676  0.11046061  0.93383529    -0.20400
F329        F  0.18889341  0.15122703  0.91450218    -0.20000
F330        F  0.27331362  0.01423161  0.91329933    -0.20100
F331        F  0.30776043  0.03948095  0.94145058    -0.20400
F332        F  0.30088496  0.04389467  0.88137077    -0.23100
C333        C  0.23601133  0.26422151  0.63776514    -0.05900
C334        C  0.22025774  0.24237489  0.65449469     0.00000
C335        C  0.23455956  0.21519191  0.66209118    -0.08600
C336        C  0.26454179  0.21281342  0.66005791    -0.06000
C337        C  0.28072183  0.23627289  0.64939252     0.00000
C338        C  0.26641134  0.26174271  0.63535993    -0.08500
C339        C  0.28313608  0.28657152  0.61967660     0.61900
H340        H  0.22465558  0.28425108  0.62968303     0.12600
H341        H  0.27560441  0.19310311  0.66976938     0.12600
C342        C  0.21942294  0.18882115  0.67512231     0.62100
F343        F  0.26504413  0.30898247  0.60700562    -0.23000
F344        F  0.29987481  0.27611746  0.59070448    -0.20400
F345        F  0.30070356  0.29814575  0.64598582    -0.20000
F346        F  0.23158928  0.16361206  0.65921604    -0.20100
F347        F  0.19080927  0.19037131  0.66557384    -0.20400
F348        F  0.22239716  0.18708213  0.71253896    -0.23100
C349        C  0.30703712  0.17464958  0.74157877    -0.05900
C350        C  0.32708965  0.19607488  0.74877018     0.00000
C351        C  0.33255940  0.20367107  0.78560930    -0.08600
C352        C  0.31450784  0.19329144  0.81336955    -0.06000
C353        C  0.29201625  0.17469387  0.80555679     0.00000
C354        C  0.29022307  0.16285686  0.76967366    -0.08500
C355        C  0.27097299  0.13773919  0.76114858     0.61900
H356        H  0.30390806  0.16799706  0.71349096     0.12600
H357        H  0.31767540  0.20001880  0.84132700     0.12600
C358        C  0.35685052  0.22329626  0.79535719     0.62100
F359        F  0.27241275  0.12953867  0.72467413    -0.23000
F360        F  0.24287178  0.14571312  0.76932786    -0.20400
F361        F  0.27933487  0.11368604  0.78171330    -0.20000
F362        F  0.35043061  0.25126929  0.78351481    -0.20100
F363        F  0.38206742  0.21278659  0.77886122    -0.20400
F364        F  0.36135159  0.22449398  0.83266906    -0.23100
C365        C  0.41161886  0.25822496  0.65463903    -0.05900
C366        C  0.39034901  0.23763212  0.64788617     0.00000
C367        C  0.39620690  0.21608096  0.61975769    -0.08600
C368        C  0.41954137  0.21981707  0.59590206    -0.06000
C369        C  0.43862398  0.24247301  0.60035733     0.00000
C370        C  0.43571386  0.26094674  0.63157744    -0.08500
C371        C  0.45816686  0.28303440  0.64119389     0.61900
H372        H  0.40963392  0.27236581  0.67831479     0.12600
H373        H  0.42272977  0.20476267  0.57299607     0.12600
C374        C  0.37932850  0.18871326  0.61218588     0.62100
F375        F  0.45428663  0.29420479  0.67624946    -0.23000
F376        F  0.45645023  0.30622636  0.61725012    -0.20400
F377        F  0.48540124  0.26976089  0.63928584    -0.20000
F378        F  0.36599282  0.19141991  0.57864355    -0.20100
F379        F  0.35882990  0.18282813  0.63804699    -0.20400
F380        F  0.39828741  0.16458906  0.61073980    -0.23100
C381        C  0.22796775  0.27180887  0.92070662    -0.05900
C382        C  0.25057492  0.28547234  0.90324742     0.00000
C383        C  0.27565413  0.26837839  0.89418721    -0.08600
C384        C  0.27395667  0.23784161  0.89281030    -0.06000
C385        C  0.24913712  0.22385620  0.90357686     0.00000
C386        C  0.22771324  0.24098849  0.92335254    -0.08500
C387        C  0.20514545  0.22895782  0.94849435     0.61900
H388        H  0.20971423  0.28514051  0.93065808     0.12600
H389        H  0.29195288  0.22482311  0.88198183     0.12600
C390        C  0.30443339  0.28113144  0.88561157     0.62100
F391        F  0.21046381  0.23833698  0.98375602    -0.23000
F392        F  0.20536390  0.19886593  0.94849391    -0.20400
F393        F  0.17798721  0.23954836  0.93880105    -0.20000
F394        F  0.30425064  0.31114005  0.89062074    -0.20100
F395        F  0.31232590  0.27435691  0.85000689    -0.20400
F396        F  0.32492870  0.26889943  0.90873614    -0.23100
C397        C  0.20604772  0.34024940  0.77160389    -0.05900
C398        C  0.19475930  0.33477458  0.80641276     0.00000
C399        C  0.16948351  0.31880576  0.80925237    -0.08600
C400        C  0.15875388  0.30509901  0.77760739    -0.06000
C401        C  0.17358174  0.30587764  0.74405580     0.00000
C402        C  0.19583949  0.32591735  0.74021851    -0.08500
C403        C  0.21005145  0.33051959  0.70368977     0.61900
H404        H  0.22505430  0.35313790  0.76970916     0.12600
H405        H  0.14005039  0.29179973  0.77950849     0.12600
C406        C  0.15454265  0.31602473  0.84582082     0.62100
F407        F  0.22856306  0.35352291  0.70473665    -0.23000
F408        F  0.18935570  0.33659780  0.67756979    -0.20400
F409        F  0.22567146  0.30546150  0.69391903    -0.20000
F410        F  0.14688773  0.34369446  0.85916137    -0.20100
F411        F  0.17276026  0.30215765  0.87044607    -0.20400
F412        F  0.12988098  0.30017632  0.84298945    -0.23100
C413        C  0.28428465  0.29098588  0.73538523    -0.05900
C414        C  0.31420379  0.29279786  0.73291570     0.00000
C415        C  0.32767505  0.31122820  0.75863266    -0.08600
C416        C  0.31081502  0.32294834  0.78815954    -0.06000
C417        C  0.28236882  0.31411960  0.79487080     0.00000
C418        C  0.27074973  0.29408023  0.76928711    -0.08500
C419        C  0.25151049  0.26920204  0.77976725     0.61900
H420        H  0.27301301  0.27996153  0.71380218     0.12600
H421        H  0.32062035  0.33744094  0.80748514     0.12600
C422        C  0.35871774  0.31980386  0.75447702     0.62100
F423        F  0.22304266  0.27836956  0.78082680    -0.23000
F424        F  0.26040252  0.25794974  0.81286454    -0.20400
F425        F  0.25328827  0.24599735  0.75529197    -0.20000
F426        F  0.36197314  0.33405966  0.72167090    -0.20100
F427        F  0.37718173  0.29539476  0.75545756    -0.20400
F428        F  0.36674011  0.33869316  0.78207248    -0.23100
C429        C  0.27886370  0.39290656  0.91783490    -0.05900
C430        C  0.25846536  0.39470491  0.88957806     0.00000
C431        C  0.24549892  0.42272368  0.88234810    -0.08600
C432        C  0.24580381  0.44434832  0.90996680    -0.06000
C433        C  0.26209972  0.44023942  0.94176712     0.00000
C434        C  0.28049549  0.41488949  0.94470447    -0.08500
C435        C  0.30016356  0.40987353  0.97723357     0.61900
H436        H  0.29203630  0.37297513  0.92034359     0.12600
H437        H  0.23406438  0.46506424  0.90606800     0.12600
C438        C  0.23484757  0.43229152  0.84508958     0.62100
F439        F  0.31404026  0.38249075  0.97606618    -0.23000
F440        F  0.28418764  0.41180945  0.00913856    -0.20400
F441        F  0.32101341  0.43063069  0.97778382    -0.20000
F442        F  0.20542845  0.43792171  0.84632515    -0.20100
F443        F  0.24150023  0.41177727  0.81802360    -0.20400
F444        F  0.24800830  0.45780000  0.83549609    -0.23100
C445        C  0.24445622  0.86727611  0.87084617     0.86300
C446        C  0.21471418  0.86343444  0.85310977    -0.53900
C447        C  0.21157899  0.83659437  0.83756101     0.09300
C448        C  0.23760378  0.81543516  0.84359573     0.20200
C449        C  0.24658879  0.84231653  0.89914221    -0.54600
C450        C  0.24393213  0.81528766  0.88447828     0.09400
C451        C  0.26638398  0.85802634  0.84050911    -0.54200
C452        C  0.26307360  0.83048918  0.82576812     0.09900
H453        H  0.19806041  0.88032003  0.85044758     0.14400
H454        H  0.23312803  0.79321592  0.83569361     0.00200
H455        H  0.25179783  0.84545012  0.92775342     0.14800
H456        H  0.28256944  0.87273004  0.83115772     0.14500
C457        C  0.36764829  0.74480223  0.67675685     0.86300
C458        C  0.36779532  0.72150909  0.70737448    -0.53900
C459        C  0.34252737  0.72083382  0.72623649     0.09300
C460        C  0.31997747  0.74323959  0.71343942     0.20200
C461        C  0.34075828  0.73969292  0.65303266    -0.54600
C462        C  0.31587524  0.73872490  0.67248556     0.09400
C463        C  0.35886590  0.77429242  0.69695075    -0.54200
C464        C  0.33367630  0.77322746  0.71651725     0.09900
H465        H  0.38605114  0.70674215  0.71304456     0.14400
H466        H  0.30004231  0.74101160  0.72911794     0.00200
H467        H  0.34132198  0.73786067  0.62349755     0.14800
H468        H  0.36963847  0.79459777  0.69350032     0.14500
C469        C  0.25116785  0.64254942  0.88399429     0.86300
C470        C  0.27734739  0.64568524  0.85786228    -0.53900
C471        C  0.27676189  0.67099677  0.83862062     0.09300
C472        C  0.25054199  0.69156870  0.84803260     0.20200
C473        C  0.25237332  0.67029821  0.90846802    -0.54600
C474        C  0.25119803  0.69608864  0.89003101     0.09400
C475        C  0.22496739  0.64705582  0.85848803    -0.54200
C476        C  0.22410411  0.67308695  0.84052066     0.09900
H477        H  0.29537840  0.63030023  0.85425485     0.14400
H478        H  0.25028632  0.71222669  0.83254043    -0.01000
H479        H  0.25533583  0.66922368  0.93779980     0.14800
H480        H  0.20819634  0.63129939  0.85577211     0.14500
C481        C  0.14302666  0.75201144  0.66983337     0.86300
C482        C  0.14625175  0.78056265  0.69190175    -0.53900
C483        C  0.17010712  0.78087312  0.71314361     0.09300
C484        C  0.18850262  0.75183985  0.71101326     0.20200
C485        C  0.17176558  0.74610962  0.64896156    -0.54600
C486        C  0.19559441  0.74631971  0.67043236     0.09400
C487        C  0.14347038  0.72845241  0.70059799    -0.54200
C488        C  0.16784730  0.72761311  0.72121688     0.09900
H489        H  0.13019971  0.79849337  0.69202849     0.14400
H490        H  0.20767677  0.75180347  0.72834252     0.00200
H491        H  0.17300285  0.74184625  0.61975507     0.14800
H492        H  0.12556610  0.71554761  0.70860993     0.14500
C493        C  0.36796017  0.74416154  0.37142039     0.86300
C494        C  0.37081719  0.76954760  0.34440863    -0.53900
C495        C  0.35089691  0.77029701  0.31758478     0.09300
C496        C  0.32984731  0.74556447  0.31981116     0.20200
C497        C  0.33607639  0.74748265  0.38550946    -0.54600
C498        C  0.31563673  0.74846483  0.35835389     0.09400
C499        C  0.36708019  0.71559798  0.34865731    -0.54200
C500        C  0.34754954  0.71637176  0.32112868     0.09900
H501        H  0.38689984  0.78601816  0.34709645     0.14400
H502        H  0.31527383  0.74685434  0.29601768     0.00200
H503        H  0.33037781  0.74613933  0.41390222     0.14800
H504        H  0.37714811  0.69510261  0.35745936     0.14500
C505        C  0.25771478  0.85898510  0.17334413     0.86300
C506        C  0.28686310  0.85754464  0.19345651    -0.53900
C507        C  0.28889442  0.83641344  0.21934632     0.09300
C508        C  0.26094489  0.81973386  0.22472353     0.20200
C509        C  0.25284561  0.82739185  0.15998228    -0.54600
C510        C  0.25431418  0.80681400  0.18682725     0.09400
C511        C  0.23565008  0.86409420  0.20501336    -0.54200
C512        C  0.23680246  0.84338119  0.23154577     0.09900
H513        H  0.30438759  0.87179027  0.18795047     0.14400
H514        H  0.26287449  0.80297701  0.24628821     0.00200
H515        H  0.24990446  0.82187624  0.13142920     0.14800
H516        H  0.21965989  0.88199714  0.20639108     0.14500
C517        C  0.13743299  0.76369054  0.36919867     0.86300
C518        C  0.13223297  0.73824693  0.34238727    -0.53900
C519        C  0.15026628  0.73686418  0.31315657     0.09300
C520        C  0.17152381  0.76158254  0.31278136     0.20200
C521        C  0.17011725  0.76034737  0.37860480    -0.54600
C522        C  0.18873567  0.75900906  0.34876425     0.09400
C523        C  0.13697181  0.79207893  0.34608369    -0.54200
C524        C  0.15476769  0.79079697  0.31651593     0.09900
H525        H  0.11697669  0.72137276  0.34772878     0.14400
H526        H  0.18239535  0.76162298  0.28677406     0.00200
H527        H  0.17770213  0.76038460  0.40625999     0.14800
H528        H  0.12813925  0.81302536  0.35609685     0.14500
C529        C  0.24641498  0.62832863  0.18811314     0.86300
C530        C  0.21934382  0.63264040  0.21235509    -0.53900
C531        C  0.21960644  0.65624793  0.23528608     0.09300
C532        C  0.24778898  0.67304207  0.23268943     0.20200
C533        C  0.25031852  0.65802968  0.16900124    -0.54600
C534        C  0.25058956  0.68149774  0.19223107     0.09400
C535        C  0.27208366  0.62701779  0.21551981    -0.54200
C536        C  0.27254840  0.65031685  0.23918707     0.09900
H537        H  0.20050846  0.61951099  0.20929944     0.14400
H538        H  0.24871953  0.69190657  0.25133037     0.00200
H539        H  0.25266017  0.66029052  0.13967009     0.14800
H540        H  0.28962631  0.61072230  0.21514176     0.14500
O541        O  0.23117055  0.53018036  0.98968232    -0.71900
O542        O  0.22451837  0.96637486  0.05641226    -0.72200
O543        O  0.22644420  0.52530504  0.06216163    -0.72000
O544        O  0.22801324  0.97144585  0.98364348    -0.72000
O545        O  0.27447290  0.97227247  0.98788555    -0.72000
O546        O  0.27296975  0.52537286  0.06678317    -0.72000
O547        O  0.27080657  0.96819309  0.06068754    -0.71900
O548        O  0.27771244  0.53019070  0.99387348    -0.72100
V549        V  0.23115510  0.49845957  0.02220164     1.35200
V550        V  0.27581148  0.49849740  0.02707751     1.35200
C551        C  0.25467172  0.54087421  0.98036363     0.77300
C552        C  0.24776976  0.95619478  0.06974870     0.77400
C553        C  0.24851156  0.53449978  0.07804192     0.77200
C554        C  0.25260475  0.96255916  0.97236248     0.77200
O555        O  0.03433626  0.73151491  0.55911072    -0.71900
O556        O  0.47478748  0.73033995  0.48753022    -0.72200
O557        O  0.03407133  0.73461278  0.48636565    -0.72000
O558        O  0.47660851  0.72894026  0.56069565    -0.72000
O559        O  0.47267275  0.77632511  0.56437115    -0.72000
O560        O  0.02849070  0.78197611  0.48841092    -0.72000
O561        O  0.46872723  0.77768006  0.49127887    -0.71900
O562        O  0.03162206  0.77902129  0.56136664    -0.72100
V563        V  0.50437790  0.73258917  0.52276934     1.35200
V564        V  0.49964599  0.77812010  0.52533700     1.35200
C565        C  0.04309144  0.75515447  0.57236080     0.77300
C566        C  0.46108223  0.75344752  0.47818006     0.77400
C567        C  0.04144091  0.75936423  0.47516205     0.77200
C568        C  0.46525457  0.75170525  0.57574085     0.77200
C569        C  0.22751964  0.58075812  0.10356519    -0.05900
C570        C  0.24593451  0.55621180  0.10823121     0.00000
C571        C  0.26152634  0.55316057  0.14103235    -0.08600
C572        C  0.25980397  0.57615315  0.16691683    -0.06000
C573        C  0.24361138  0.60252617  0.16095579     0.00000
C574        C  0.22518018  0.60364997  0.12956013    -0.08500
C575        C  0.20300469  0.62793469  0.12019863     0.61900
H576        H  0.21497841  0.58230875  0.07870313     0.12600
H577        H  0.27134224  0.57313793  0.19205653     0.12600
C578        C  0.28013931  0.52581955  0.14871123     0.62100
F579        F  0.21270729  0.64302270  0.09027812    -0.23000
F580        F  0.19679978  0.64777458  0.14791687    -0.20400
F581        F  0.17730404  0.61549809  0.11107112    -0.20000
F582        F  0.30493574  0.52604664  0.12774125    -0.20100
F583        F  0.26532155  0.50092780  0.14045642    -0.20400
F584        F  0.28803908  0.52427748  0.18505751    -0.23100
C585        C  0.16478225  0.68390647  0.30643121    -0.05900
C586        C  0.15559586  0.71017980  0.28961919     0.00000
C587        C  0.15975059  0.71261719  0.25148682    -0.08600
C588        C  0.17891661  0.69259974  0.23362223    -0.06000
C589        C  0.19275482  0.66949331  0.25232589     0.00000
C590        C  0.18248671  0.66275636  0.28774270    -0.08500
C591        C  0.18865648  0.63377744  0.30646376     0.61900
H592        H  0.15993848  0.68078559  0.33507773     0.12600
H593        H  0.18435618  0.69603544  0.20535527     0.12600
C594        C  0.14643190  0.73737201  0.22952491     0.62100
F595        F  0.20063896  0.63844591  0.34040300    -0.23000
F596        F  0.20687443  0.61515725  0.28639115    -0.20400
F597        F  0.16297995  0.62000018  0.31133079    -0.20000
F598        F  0.16737276  0.75675028  0.22074678    -0.20100
F599        F  0.12441441  0.75211185  0.24848376    -0.20400
F600        F  0.13508678  0.72630691  0.19761679    -0.23100
C601        C  0.08884465  0.78119237  0.39510555    -0.05900
C602        C  0.11451808  0.76388535  0.40043450     0.00000
C603        C  0.11448440  0.74346108  0.43000560    -0.08600
C604        C  0.09025062  0.74324742  0.45355886    -0.06000
C605        C  0.06568904  0.76154531  0.44861529     0.00000
C606        C  0.06480140  0.78071163  0.41864268    -0.08500
C607        C  0.03795684  0.79950686  0.41025176     0.61900
H608        H  0.08674648  0.79451370  0.37109506     0.12600
H609        H  0.09043504  0.72880039  0.47684109     0.12600
C610        C  0.13948578  0.72209430  0.43859106     0.62100
F611        F  0.04019967  0.81386758  0.37730398    -0.23000
F612        F  0.03344880  0.82055577  0.43727763    -0.20400
F613        F  0.01433701  0.78206081  0.40834932    -0.20000
F614        F  0.16081194  0.73680382  0.45634790    -0.20100
F615        F  0.15042433  0.70852127  0.40736064    -0.20400
F616        F  0.13106569  0.70002203  0.46151483    -0.23100
C617        C  0.27790284  0.75764852  0.18916552    -0.05900
C618        C  0.25329642  0.77451067  0.18030017     0.00000
C619        C  0.22882559  0.75993366  0.16739835    -0.08600
C620        C  0.22885410  0.72892425  0.16934325    -0.06000
C621        C  0.25342694  0.71244349  0.18028099     0.00000
C622        C  0.27918503  0.72719839  0.18518190    -0.08500
C623        C  0.30868149  0.71248520  0.18405892     0.61900
H624        H  0.29663529  0.76815125  0.19920452     0.12600
H625        H  0.20982245  0.71739368  0.16218052     0.12600
C626        C  0.20293236  0.77672051  0.15213362     0.62100
F627        F  0.32478992  0.72512539  0.15697537    -0.23000
F628        F  0.30792338  0.68291360  0.17621804    -0.20400
F629        F  0.32191216  0.71698966  0.21705865    -0.20000
F630        F  0.21050499  0.78986607  0.11986173    -0.20100
F631        F  0.19317635  0.79796665  0.17673484    -0.20400
F632        F  0.18052820  0.75852902  0.14470857    -0.23100
C633        C  0.19434269  0.82489363  0.31698624    -0.05900
C634        C  0.16833500  0.81697525  0.30106871     0.00000
C635        C  0.16215575  0.82645097  0.26531162    -0.08600
C636        C  0.18452328  0.83741235  0.24397891    -0.06000
C637        C  0.21244830  0.83998982  0.25800024     0.00000
C638        C  0.21636693  0.83688599  0.29610815    -0.08500
C639        C  0.24372823  0.84492083  0.31493706     0.61900
H640        H  0.19853128  0.81904776  0.34511579     0.12600
H641        H  0.18040739  0.84263182  0.21565000     0.12600
C642        C  0.13242678  0.82553397  0.24893946     0.62100
F643        F  0.26300359  0.82111720  0.31443958    -0.23000
F644        F  0.23826313  0.85308773  0.35090762    -0.20400
F645        F  0.25544979  0.86852268  0.29783343    -0.20000
F646        F  0.12362546  0.85356462  0.23881161    -0.20100
F647        F  0.11237107  0.81548511  0.27335955    -0.20400
F648        F  0.13309557  0.80767458  0.21826239    -0.23100
C649        C  0.27493671  0.91435500  0.09722215    -0.05900
C650        C  0.24863232  0.93029914  0.09436136     0.00000
C651        C  0.22434292  0.92020948  0.11352201    -0.08600
C652        C  0.22803927  0.89570238  0.13627345    -0.06000
C653        C  0.25509149  0.88150834  0.14216907     0.00000
C654        C  0.27818193  0.88908804  0.11864242    -0.08500
C655        C  0.30587155  0.87084412  0.11259289     0.61900
H656        H  0.29313708  0.92095813  0.08106802     0.12600
H657        H  0.20932164  0.88732182  0.14947407     0.12600
C658        C  0.19469966  0.93537489  0.11128640     0.62100
F659        F  0.31263669  0.86969180  0.07570906    -0.23000
F660        F  0.30360695  0.84230847  0.12357628    -0.20400
F661        F  0.32821637  0.88356810  0.13084958    -0.20000
F662        F  0.18405589  0.93276440  0.07627095    -0.20100
F663        F  0.19645777  0.96466781  0.12066187    -0.20400
F664        F  0.17511504  0.92329714  0.13484951    -0.23100
C665        C  0.26856688  0.73791420  0.33248060    -0.05900
C666        C  0.28294597  0.74914720  0.36246714     0.00000
C667        C  0.26536481  0.76282824  0.39044526    -0.08600
C668        C  0.23495880  0.76532255  0.38501914    -0.06000
C669        C  0.22165754  0.75729338  0.35175526     0.00000
C670        C  0.24068606  0.74691284  0.32340902    -0.08500
C671        C  0.23483332  0.74775311  0.28283675     0.61900
H672        H  0.28000515  0.72390104  0.31325948     0.12600
H673        H  0.22161225  0.77468418  0.40663547     0.12600
C674        C  0.27728430  0.77306756  0.42671723     0.62100
F675        F  0.25941566  0.74201581  0.26212806    -0.23000
F676        F  0.22516184  0.77541054  0.27295194    -0.20400
F677        F  0.21558521  0.72698996  0.27397040    -0.20000
F678        F  0.29938791  0.79183797  0.42143639    -0.20100
F679        F  0.28704076  0.74904023  0.44638746    -0.20400
F680        F  0.25653075  0.78799057  0.44772431    -0.23100
C681        C  0.31186294  0.67773448  0.32233735    -0.05900
C682        C  0.33577642  0.68923231  0.30511957     0.00000
C683        C  0.34410942  0.67814665  0.27038715    -0.08600
C684        C  0.32448013  0.66112848  0.25068076    -0.06000
C685        C  0.29687300  0.65624855  0.26480879     0.00000
C686        C  0.29208251  0.66144044  0.30254476    -0.08500
C687        C  0.26568282  0.65096635  0.32158312     0.61900
H688        H  0.30691419  0.68448711  0.35018968     0.12600
H689        H  0.32967418  0.65377963  0.22322091     0.12600
C690        C  0.37309120  0.68510885  0.25427248     0.62100
F691        F  0.26893194  0.65106971  0.35914238    -0.23000
F692        F  0.26070422  0.62256612  0.31054904    -0.20400
F693        F  0.24248143  0.66925842  0.31311429    -0.20000
F694        F  0.39462828  0.67473390  0.27719445    -0.20100
F695        F  0.37524616  0.71503660  0.25073409    -0.20400
F696        F  0.37732760  0.67218958  0.22021406    -0.23100
C697        C  0.34919560  0.78888487  0.25395734    -0.05900
C698        C  0.34598150  0.79482606  0.29150465     0.00000
C699        C  0.33236521  0.82181608  0.30265425    -0.08600
C700        C  0.31657731  0.83812365  0.27667987    -0.06000
C701        C  0.31545429  0.82894979  0.24028943     0.00000
C702        C  0.33569579  0.80720402  0.22785647    -0.08500
C703        C  0.34489563  0.80551755  0.18806185     0.61900
H704        H  0.36178351  0.76963188  0.24526035     0.12600
H705        H  0.30392005  0.85734237  0.28487676     0.12600
C706        C  0.33350116  0.83282967  0.34171036     0.62100
F707        F  0.36591152  0.78365850  0.18209380    -0.23000
F708        F  0.35613545  0.83197583  0.17847500    -0.20400
F709        F  0.32206502  0.80027473  0.16545508    -0.20000
F710        F  0.36180704  0.83645528  0.35150433    -0.20100
F711        F  0.32142773  0.81302439  0.36463701    -0.20400
F712        F  0.31868114  0.85951144  0.34637356    -0.23100
C713        C  0.38690779  0.75722976  0.43447677    -0.05900
C714        C  0.39261274  0.74466353  0.39957409     0.00000
C715        C  0.42210132  0.73675025  0.39051601    -0.08600
C716        C  0.44335436  0.73985416  0.41741910    -0.06000
C717        C  0.43712727  0.75179022  0.45189847     0.00000
C718        C  0.40849703  0.76049355  0.46089127    -0.08500
C719        C  0.40060828  0.77206307  0.49881887     0.61900
H720        H  0.36553451  0.76553712  0.44115669     0.12600
H721        H  0.46547265  0.73285664  0.41171077     0.12600
C722        C  0.43238587  0.72381721  0.35378552     0.62100
F723        F  0.37139006  0.77851310  0.50246816    -0.23000
F724        F  0.41495993  0.79737654  0.50613112    -0.20400
F725        F  0.40822098  0.75112809  0.52438103    -0.20000
F726        F  0.46165684  0.72691474  0.34885142    -0.20100
F727        F  0.41909656  0.73750758  0.32464685    -0.20400
F728        F  0.42749454  0.69418355  0.35256756    -0.23100
C729        C  0.09606478  0.73194904  0.64619224    -0.05900
C730        C  0.11686140  0.75368790  0.64404136     0.00000
C731        C  0.11211734  0.77662848  0.61786109    -0.08600
C732        C  0.08694363  0.77683329  0.59666956    -0.06000
C733        C  0.06695208  0.75486097  0.59896472     0.00000
C734        C  0.07089335  0.73265648  0.62518514    -0.08500
C735        C  0.04834290  0.71002240  0.63193189     0.61900
H736        H  0.09943374  0.71333599  0.66344499     0.12600
H737        H  0.08331457  0.79406567  0.57685126     0.12600
C738        C  0.13164075  0.80205193  0.61022495     0.62100
F739        F  0.04916290  0.68940586  0.60401475    -0.23000
F740        F  0.02121077  0.72356616  0.63383621    -0.20400
F741        F  0.05293571  0.69551511  0.66453366    -0.20000
F742        F  0.13539361  0.80469924  0.57287954    -0.20100
F743        F  0.15870367  0.79940761  0.62499961    -0.20400
F744        F  0.11844141  0.82769168  0.62349558    -0.23100
C745        C  0.19208198  0.66577601  0.78584312    -0.05900
C746        C  0.20041511  0.68316361  0.81546280     0.00000
C747        C  0.18864890  0.71192014  0.81797448    -0.08600
C748        C  0.17728666  0.72517330  0.78684324    -0.06000
C749        C  0.17276258  0.70936908  0.75465311     0.00000
C750        C  0.17702117  0.67813039  0.75578801    -0.08500
C751        C  0.16675287  0.65650579  0.72743505     0.61900
H752        H  0.19825185  0.64264072  0.78544403     0.12600
H753        H  0.17179996  0.74823852  0.78799646     0.12600
C754        C  0.18611054  0.72846838  0.85349192     0.62100
F755        F  0.18994116  0.64023273  0.71313798    -0.23000
F756        F  0.15187481  0.66947656  0.69913335    -0.20400
F757        F  0.14859201  0.63746400  0.74427571    -0.20000
F758        F  0.20586789  0.75014941  0.85402977    -0.20100
F759        F  0.19037855  0.70992046  0.88255924    -0.20400
F760        F  0.15867872  0.74101313  0.85711575    -0.23100
C761        C  0.23180635  0.58655200  0.95829225    -0.05900
C762        C  0.25439468  0.56564255  0.95475204     0.00000
C763        C  0.27407736  0.56765026  0.92557123    -0.08600
C764        C  0.27115313  0.59167818  0.90197263    -0.06000
C765        C  0.24989247  0.61448690  0.90702033     0.00000
C766        C  0.22862607  0.61064251  0.93499353    -0.08500
C767        C  0.20170483  0.62992490  0.94293154     0.61900
H768        H  0.21616881  0.58406369  0.98005323     0.12600
H769        H  0.28585217  0.59204912  0.87941669     0.12600
C770        C  0.29789501  0.54438427  0.91895427     0.62100
F771        F  0.20292116  0.64055260  0.97838989    -0.23000
F772        F  0.17780539  0.61294611  0.93989554    -0.20400
F773        F  0.19737633  0.65342941  0.92030651    -0.20000
F774        F  0.28653823  0.51683218  0.91815365    -0.20100
F775        F  0.31795320  0.54572909  0.94659037    -0.20400
F776        F  0.31204841  0.54823599  0.88609487    -0.23100
C777        C  0.24112385  0.76230173  0.64130219    -0.05900
C778        C  0.22567977  0.73980763  0.65710026     0.00000
C779        C  0.24087815  0.71353898  0.66643182    -0.08600
C780        C  0.27093650  0.71298606  0.66775700    -0.06000
C781        C  0.28645988  0.73699070  0.65718536     0.00000
C782        C  0.27161610  0.76120067  0.64078443    -0.08500
C783        C  0.28776358  0.78600921  0.62404066     0.61900
H784        H  0.22923399  0.78155928  0.63174435     0.12600
H785        H  0.28235450  0.69396466  0.67871959     0.12600
C786        C  0.22645737  0.68594897  0.67667026     0.62100
F787        F  0.26919634  0.80726565  0.60962828    -0.23000
F788        F  0.30524283  0.77502581  0.59606196    -0.20400
F789        F  0.30452680  0.79923323  0.64995198    -0.20000
F790        F  0.23978638  0.66219164  0.65884716    -0.20100
F791        F  0.19789520  0.68682459  0.66673950    -0.20400
F792        F  0.22904892  0.68221977  0.71384564    -0.23100
C793        C  0.31605489  0.67850961  0.74762373    -0.05900
C794        C  0.33501923  0.70062237  0.75624215     0.00000
C795        C  0.33914352  0.70805768  0.79342237    -0.08600
C796        C  0.32111320  0.69620880  0.82010687    -0.06000
C797        C  0.29907746  0.67758048  0.81059726     0.00000
C798        C  0.29834065  0.66633864  0.77441542    -0.08500
C799        C  0.27907988  0.64164113  0.76415133     0.61900
H800        H  0.31416210  0.67197110  0.71930920     0.12600
H801        H  0.32376002  0.70191388  0.84842070     0.12600
C802        C  0.36160866  0.72934029  0.80470531     0.62100
F803        F  0.28115945  0.63445899  0.72739156    -0.23000
F804        F  0.25088940  0.64967840  0.77175553    -0.20400
F805        F  0.28680094  0.61697860  0.78395049    -0.20000
F806        F  0.35372640  0.75687460  0.79247119    -0.20100
F807        F  0.38797253  0.72062151  0.78974894    -0.20400
F808        F  0.36458016  0.73086038  0.84228077    -0.23100
C809        C  0.41557053  0.76584491  0.65836604    -0.05900
C810        C  0.39561174  0.74358714  0.65382971     0.00000
C811        C  0.40205411  0.72140874  0.62665131    -0.08600
C812        C  0.42477541  0.72547081  0.60200376    -0.06000
C813        C  0.44276750  0.74923860  0.60454331     0.00000
C814        C  0.43890970  0.76921377  0.63421424    -0.08500
C815        C  0.45948115  0.79372098  0.64101545     0.61900
H816        H  0.41310645  0.78084363  0.68113738     0.12600
H817        H  0.42836827  0.70970194  0.57993589     0.12600
C818        C  0.38599791  0.69327568  0.62053068     0.62100
F819        F  0.45418364  0.80777706  0.67420269    -0.23000
F820        F  0.45655598  0.81446639  0.61393133    -0.20400
F821        F  0.48750804  0.78239503  0.64136113    -0.20000
F822        F  0.40571688  0.66993590  0.61652640    -0.20100
F823        F  0.37022381  0.69570118  0.58871207    -0.20400
F824        F  0.36781196  0.68625749  0.64860806    -0.23100
C825        C  0.23066861  0.77300809  0.92240928    -0.05900
C826        C  0.25193329  0.78751231  0.90329063     0.00000
C827        C  0.27772889  0.77175496  0.89402571    -0.08600
C828        C  0.27800100  0.74111305  0.89451029    -0.06000
C829        C  0.25440418  0.72591233  0.90691152     0.00000
C830        C  0.23248032  0.74227919  0.92668079    -0.08500
C831        C  0.21162914  0.72958149  0.95363350     0.61900
H832        H  0.21190051  0.78546590  0.93247830     0.12600
H833        H  0.29634951  0.72899354  0.88352265     0.12600
C834        C  0.30522906  0.78594070  0.88279352     0.62100
F835        F  0.21651892  0.74152390  0.98780742    -0.23000
F836        F  0.21481269  0.69967085  0.95640603    -0.20400
F837        F  0.18355355  0.73680821  0.94398515    -0.20000
F838        F  0.30339092  0.81610184  0.88602814    -0.20100
F839        F  0.31204201  0.77819657  0.84715735    -0.20400
F840        F  0.32731845  0.77591168  0.90511322    -0.23100
C841        C  0.20420707  0.83954556  0.77080826    -0.05900
C842        C  0.19295050  0.83246995  0.80515981     0.00000
C843        C  0.16820545  0.81570518  0.80691830    -0.08600
C844        C  0.15870324  0.80193911  0.77474363    -0.06000
C845        C  0.17412163  0.80386113  0.74178758     0.00000
C846        C  0.19503825  0.82540588  0.73876334    -0.08500
C847        C  0.20895479  0.83190361  0.70254192     0.61900
H848        H  0.22245846  0.85354307  0.76971850     0.12600
H849        H  0.14075681  0.78755799  0.77583108     0.12600
C850        C  0.15252032  0.81229774  0.84282503     0.62100
F851        F  0.22536518  0.85651730  0.70459659    -0.23000
F852        F  0.18799504  0.83680434  0.67642082    -0.20400
F853        F  0.22661713  0.80840066  0.69204219    -0.20000
F854        F  0.14389774  0.83971062  0.85614025    -0.20100
F855        F  0.17050171  0.79880420  0.86800368    -0.20400
F856        F  0.12835208  0.79583826  0.83882362    -0.23100
C857        C  0.28745943  0.79546190  0.73544512    -0.05900
C858        C  0.31734681  0.79777315  0.73604535     0.00000
C859        C  0.32898739  0.81618376  0.76316848    -0.08600
C860        C  0.31023849  0.82756595  0.79101447    -0.06000
C861        C  0.28175119  0.81794119  0.79496978     0.00000
C862        C  0.27209382  0.79775588  0.76816193    -0.08500
C863        C  0.25311241  0.77216500  0.77650721     0.61900
H864        H  0.27802350  0.78384845  0.71289238     0.12600
H865        H  0.31852837  0.84224844  0.81136678     0.12600
C866        C  0.36010529  0.82497028  0.76204192     0.62100
F867        F  0.22465428  0.78085156  0.77905955    -0.23000
F868        F  0.26244487  0.75901984  0.80831869    -0.20400
F869        F  0.25475333  0.75056792  0.74984738    -0.20000
F870        F  0.36497984  0.83995249  0.73013409    -0.20100
F871        F  0.37864362  0.80064627  0.76345217    -0.20400
F872        F  0.36651766  0.84319462  0.79107000    -0.23100
C873        C  0.27445935  0.89689279  0.91265898    -0.05900
C874        C  0.25115265  0.89694996  0.88821946     0.00000
C875        C  0.23410894  0.92330725  0.88508093    -0.08600
C876        C  0.23499809  0.94402091  0.91355074    -0.06000
C877        C  0.25523807  0.94137403  0.94169149     0.00000
C878        C  0.27670643  0.91848287  0.93993536    -0.08500
C879        C  0.30075981  0.91556695  0.96776350     0.61900
H880        H  0.28962082  0.87828372  0.91214065     0.12600
H881        H  0.22043072  0.96315627  0.91301370     0.12600
C882        C  0.21817221  0.93274111  0.85086494     0.62100
F883        F  0.31785659  0.89040009  0.96210051    -0.23000
F884        F  0.28925032  0.91438505  0.00260129    -0.20400
F885        F  0.31826754  0.93925490  0.96525939    -0.20000
F886        F  0.18880519  0.93175536  0.85663366    -0.20100
F887        F  0.22630296  0.91573397  0.82080533    -0.20400
F888        F  0.22453768  0.96131926  0.84270679    -0.23100
C889        C  0.74383477  0.37239642  0.86733989     0.86300
C890        C  0.71384187  0.37026285  0.84948944    -0.53900
C891        C  0.70937243  0.34368422  0.83365244     0.09300
C892        C  0.73462894  0.32139144  0.83916641     0.20200
C893        C  0.74493366  0.34697142  0.89504153    -0.54600
C894        C  0.74143706  0.32039866  0.87982944     0.09400
C895        C  0.76526739  0.36266093  0.83669594    -0.54200
C896        C  0.76065025  0.33554058  0.82139408     0.09900
H897        H  0.69825014  0.38825142  0.84689657     0.14400
H898        H  0.72894172  0.29952273  0.83137960     0.00200
H899        H  0.75011294  0.34929548  0.92377595     0.14800
H900        H  0.78208857  0.37673857  0.82766435     0.14500
C901        C  0.86147927  0.24536998  0.67234649     0.86300
C902        C  0.86014594  0.22137247  0.70199972    -0.53900
C903        C  0.83470851  0.22166295  0.72058332     0.09300
C904        C  0.81350534  0.24563057  0.70848265     0.20200
C905        C  0.83443812  0.24245774  0.64809552    -0.54600
C906        C  0.80939737  0.24230272  0.66738290     0.09400
C907        C  0.85417140  0.27475060  0.69340296    -0.54200
C908        C  0.82882567  0.27473705  0.71266058     0.09900
H909        H  0.87765799  0.20563356  0.70744863     0.14400
H910        H  0.79332871  0.24412447  0.72390673     0.00200
H911        H  0.83500947  0.24156350  0.61849196     0.14800
H912        H  0.86596940  0.29445865  0.69025850     0.14500
C913        C  0.74254287  0.14759422  0.88183527     0.86300
C914        C  0.76811276  0.14984193  0.85443099    -0.53900
C915        C  0.76772867  0.17499601  0.83483107     0.09300
C916        C  0.74242322  0.19637576  0.84522814     0.20200
C917        C  0.74518435  0.17546729  0.90586032    -0.54600
C918        C  0.74434254  0.20111270  0.88707459     0.09400
C919        C  0.71569252  0.15286864  0.85745974    -0.54200
C920        C  0.71517614  0.17882882  0.83921554     0.09900
H921        H  0.78566926  0.13397564  0.85027321     0.14400
H922        H  0.74242904  0.21696066  0.82952382    -0.01000
H923        H  0.74871063  0.17459173  0.93510623     0.14800
H924        H  0.69826064  0.13777950  0.85584610     0.14500
C925        C  0.63642348  0.25821840  0.66884591     0.86300
C926        C  0.63895260  0.28734176  0.69030737    -0.53900
C927        C  0.66269037  0.28848471  0.71194395     0.09300
C928        C  0.68110796  0.25962105  0.71137475     0.20200
C929        C  0.66562529  0.25211348  0.64923416    -0.54600
C930        C  0.68900569  0.25311836  0.67131651     0.09400
C931        C  0.63644195  0.23559745  0.70045926    -0.54200
C932        C  0.66007595  0.23587753  0.72216222     0.09900
H933        H  0.62191371  0.30420402  0.69166579     0.14400
H934        H  0.69997661  0.25994959  0.72909522     0.00200
H935        H  0.66756206  0.24632008  0.62048434     0.14800
H936        H  0.61836078  0.22294405  0.70831054     0.14500
C937        C  0.86417187  0.24929419  0.37182525     0.86300
C938        C  0.86671838  0.27466349  0.34471097    -0.53900
C939        C  0.84637559  0.27551569  0.31843719     0.09300
C940        C  0.82528549  0.25090561  0.32117543     0.20200
C941        C  0.83249046  0.25287310  0.38669011    -0.54600
C942        C  0.81167101  0.25398436  0.36001603     0.09400
C943        C  0.86271866  0.22066027  0.34904883    -0.54200
C944        C  0.84261176  0.22145224  0.32207178     0.09900
H945        H  0.88293279  0.29105251  0.34690907     0.14400
H946        H  0.81051947  0.25245896  0.29763135     0.00200
H947        H  0.82717635  0.25176523  0.41523118     0.14800
H948        H  0.87252510  0.20006356  0.35790845     0.14500
C949        C  0.75454778  0.36546754  0.17352278     0.86300
C950        C  0.78389100  0.36295894  0.19297332    -0.53900
C951        C  0.78558465  0.34168879  0.21858565     0.09300
C952        C  0.75707609  0.32611710  0.22464381     0.20200
C953        C  0.74832180  0.33419504  0.16015905    -0.54600
C954        C  0.74947385  0.31357983  0.18692225     0.09400
C955        C  0.73289115  0.37121928  0.20568428    -0.54200
C956        C  0.73370550  0.35038523  0.23217126     0.09900
H957        H  0.80181073  0.37664606  0.18713537     0.14400
H958        H  0.75883840  0.30927060  0.24605272     0.00200
H959        H  0.74502612  0.32884373  0.13163201     0.14800
H960        H  0.71732342  0.38946089  0.20742515     0.14500
C961        C  0.63393567  0.27057364  0.37021565     0.86300
C962        C  0.62909094  0.24564442  0.34260902    -0.53900
C963        C  0.64715034  0.24501086  0.31348881     0.09300
C964        C  0.66824962  0.26986440  0.31415708     0.20200
C965        C  0.66651013  0.26751503  0.37988561    -0.54600
C966        C  0.68522108  0.26684461  0.35028983     0.09400
C967        C  0.63320230  0.29949624  0.34783554    -0.54200
C968        C  0.65123003  0.29887786  0.31829413     0.09900
H969        H  0.61383634  0.22861751  0.34717313     0.14400
H970        H  0.67942628  0.27040773  0.28849496     0.00200
H971        H  0.67404451  0.26743789  0.40753197     0.14800
H972        H  0.62340136  0.31999113  0.35793313     0.14500
C973        C  0.74127095  0.13536552  0.18673032     0.86300
C974        C  0.71382596  0.14004118  0.21031425    -0.53900
C975        C  0.71420699  0.16339960  0.23374138     0.09300
C976        C  0.74270535  0.17963703  0.23214354     0.20200
C977        C  0.74579036  0.16513826  0.16815244    -0.54600
C978        C  0.74592281  0.18838188  0.19178281     0.09400
C979        C  0.76658761  0.13350288  0.21471156    -0.54200
C980        C  0.76714970  0.15648687  0.23882516     0.09900
H981        H  0.69473322  0.12744397  0.20637798     0.14400
H982        H  0.74351614  0.19833379  0.25117252     0.00200
H983        H  0.74845462  0.16763534  0.13889245     0.14800
H984        H  0.78386114  0.11691282  0.21450449     0.14500
O985        O  0.72414929  0.03503360  0.99011000    -0.71900
O986        O  0.72714296  0.47266859  0.05549415    -0.72200
O987        O  0.72125425  0.03012417  0.06301794    -0.72000
O988        O  0.72903203  0.47658184  0.98253389    -0.72000
O989        O  0.77566809  0.47552844  0.98489393    -0.72000
O990        O  0.76779908  0.03161018  0.06542207    -0.72000
O991        O  0.77364715  0.47194038  0.05780550    -0.71900
O992        O  0.77074328  0.03559251  0.99210633    -0.72100
V993        V  0.72556753  0.00321814  0.02295894     1.35200
V994        V  0.77024716  0.00424984  0.02606711     1.35200
C995        C  0.74724977  0.04593022  0.97943176     0.77300
C996        C  0.75013980  0.46150193  0.06818342     0.77400
C997        C  0.74345602  0.04010725  0.07777947     0.77200
C998        C  0.75306346  0.46650230  0.97057334     0.77200
O999        O  0.52971795  0.22874073  0.55586036    -0.71900
O1000       O  0.97254642  0.23513283  0.48522894    -0.72200
O1001       O  0.53075135  0.23284136  0.48322978    -0.72000
O1002       O  0.97169044  0.23032170  0.55817466    -0.72000
O1003       O  0.96864302  0.27747322  0.56599890    -0.72000
O1004       O  0.52239379  0.27989772  0.48509015    -0.72000
O1005       O  0.96543335  0.28204348  0.49314531    -0.71900
O1006       O  0.52586570  0.27618527  0.55774272    -0.72100
V1007       V  0.00081037  0.23563664  0.52247021     1.35200
V1008       V  0.99602392  0.28100452  0.52785489     1.35200
C1009       C  0.53805531  0.25266557  0.56878796     0.77300
C1010       C  0.95845416  0.25847677  0.47760102     0.77400
C1011       C  0.53681215  0.25809124  0.47223531     0.77200
C1012       C  0.96060737  0.25241893  0.57488451     0.77200
C1013       C  0.72359011  0.08745081  0.10159126    -0.05900
C1014       C  0.74106543  0.06238859  0.10746507     0.00000
C1015       C  0.75570687  0.05936580  0.14098093    -0.08600
C1016       C  0.75412549  0.08284364  0.16625626    -0.06000
C1017       C  0.73874952  0.10955313  0.15931615     0.00000
C1018       C  0.72108700  0.11065765  0.12720318    -0.08500
C1019       C  0.69898532  0.13476638  0.11710597     0.61900
H1020       H  0.71160145  0.08895948  0.07628586     0.12600
H1021       H  0.76452485  0.07970192  0.19214913     0.12600
C1022       C  0.77195640  0.03099197  0.15074822     0.62100
F1023       F  0.70839460  0.14884546  0.08623759    -0.23000
F1024       F  0.69322414  0.15546993  0.14396856    -0.20400
F1025       F  0.67313865  0.12214886  0.10911847    -0.20000
F1026       F  0.79509510  0.02605257  0.12737751    -0.20100
F1027       F  0.75371581  0.00786714  0.14802451    -0.20400
F1028       F  0.78247995  0.03167035  0.18603820    -0.23100
C1029       C  0.65980027  0.19186954  0.30455237    -0.05900
C1030       C  0.65213241  0.21897197  0.28877642     0.00000
C1031       C  0.65684463  0.22228548  0.25085632    -0.08600
C1032       C  0.67526434  0.20183529  0.23245905    -0.06000
C1033       C  0.68745557  0.17733439  0.25027029     0.00000
C1034       C  0.67644473  0.17030216  0.28518703    -0.08500
C1035       C  0.68082389  0.14068393  0.30285746     0.61900
H1036       H  0.65449830  0.18820352  0.33295576     0.12600
H1037       H  0.68150899  0.20597855  0.20462911     0.12600
C1038       C  0.64521193  0.24849188  0.23006060     0.62100
F1039       F  0.69443669  0.14377332  0.33605147    -0.23000
F1040       F  0.69660141  0.12093702  0.28124679    -0.20400
F1041       F  0.65420594  0.12913540  0.30906432    -0.20000
F1042       F  0.66704937  0.26756512  0.22424640    -0.20100
F1043       F  0.62284563  0.26282550  0.24882055    -0.20400
F1044       F  0.63481028  0.23955881  0.19660885    -0.23100
C1045       C  0.58441561  0.28466547  0.39500797    -0.05900
C1046       C  0.61097307  0.26917654  0.40113041     0.00000
C1047       C  0.61152776  0.24797450  0.42996333    -0.08600
C1048       C  0.58691882  0.24571694  0.45249539    -0.06000
C1049       C  0.56129739  0.26206849  0.44660242     0.00000
C1050       C  0.55975256  0.28146525  0.41688413    -0.08500
C1051       C  0.53164121  0.29744538  0.40683687     0.61900
H1052       H  0.58223482  0.29851528  0.37144657     0.12600
H1053       H  0.58749754  0.23098701  0.47550116     0.12600
C1054       C  0.63719551  0.22731312  0.43825211     0.62100
F1055       F  0.53346891  0.31138436  0.37355616    -0.23000
F1056       F  0.52444034  0.31846212  0.43307938    -0.20400
F1057       F  0.50991767  0.27766235  0.40439299    -0.20000
F1058       F  0.65815876  0.24244443  0.45612380    -0.20100
F1059       F  0.64829286  0.21430144  0.40674106    -0.20400
F1060       F  0.62960184  0.20477478  0.46098192    -0.23100
C1061       C  0.77229155  0.26474098  0.19238828    -0.05900
C1062       C  0.74849543  0.28136984  0.18041463     0.00000
C1063       C  0.72480409  0.26666970  0.16551341    -0.08600
C1064       C  0.72521783  0.23558603  0.16671916    -0.06000
C1065       C  0.74911661  0.21935348  0.18036272     0.00000
C1066       C  0.77401954  0.23437529  0.18921868    -0.08500
C1067       C  0.80290975  0.21975427  0.19615957     0.61900
H1068       H  0.78990224  0.27539946  0.20520727     0.12600
H1069       H  0.70680462  0.22384061  0.15758586     0.12600
C1070       C  0.69897461  0.28341050  0.14989928     0.62100
F1071       F  0.82368517  0.23319393  0.17581403    -0.23000
F1072       F  0.80375194  0.19055080  0.18615580    -0.20400
F1073       F  0.80917136  0.22309896  0.23264848    -0.20000
F1074       F  0.70662717  0.29632812  0.11751524    -0.20100
F1075       F  0.68912715  0.30487992  0.17420022    -0.20400
F1076       F  0.67654609  0.26519716  0.14271876    -0.23100
C1077       C  0.69037200  0.33353158  0.31807038    -0.05900
C1078       C  0.66442477  0.32522382  0.30228163     0.00000
C1079       C  0.65872439  0.33372989  0.26593494    -0.08600
C1080       C  0.68132817  0.34412486  0.24441480    -0.06000
C1081       C  0.70916123  0.34701395  0.25856183     0.00000
C1082       C  0.71278298  0.34463592  0.29683801    -0.08500
C1083       C  0.74052805  0.35205133  0.31519985     0.61900
H1084       H  0.69434268  0.32809745  0.34637486     0.12600
H1085       H  0.67745095  0.34872869  0.21586587     0.12600
C1086       C  0.62912762  0.33280981  0.24920022     0.62100
F1087       F  0.76038738  0.32914627  0.31014188    -0.23000
F1088       F  0.73662470  0.35656822  0.35237505    -0.20400
F1089       F  0.75072792  0.37752655  0.30071781    -0.20000
F1090       F  0.62023178  0.36092698  0.23959432    -0.20100
F1091       F  0.60901662  0.32224431  0.27316379    -0.20400
F1092       F  0.63008061  0.31548356  0.21804430    -0.23100
C1093       C  0.77473450  0.41819845  0.09579134    -0.05900
C1094       C  0.74975762  0.43628809  0.09365130     0.00000
C1095       C  0.72516252  0.42890648  0.11430832    -0.08600
C1096       C  0.72728821  0.40461018  0.13752221    -0.06000
C1097       C  0.75310092  0.38792201  0.14229337     0.00000
C1098       C  0.77631277  0.39307941  0.11765432    -0.08500
C1099       C  0.80268260  0.37281725  0.11140024     0.61900
H1100       H  0.79306612  0.42299599  0.07875094     0.12600
H1101       H  0.70815750  0.39822979  0.15159392     0.12600
C1102       C  0.69679383  0.44666500  0.11303932     0.62100
F1103       F  0.79898877  0.34485302  0.12368922    -0.23000
F1104       F  0.82625973  0.38441836  0.12828709    -0.20400
F1105       F  0.80852935  0.37030724  0.07434423    -0.20000
F1106       F  0.68454716  0.44392888  0.07890525    -0.20100
F1107       F  0.70145714  0.47583704  0.12059614    -0.20400
F1108       F  0.67710391  0.43730631  0.13847309    -0.23100
C1109       C  0.76438491  0.24449428  0.33470196    -0.05900
C1110       C  0.77903878  0.25527631  0.36463105     0.00000
C1111       C  0.76177583  0.26918958  0.39271246    -0.08600
C1112       C  0.73137533  0.27244336  0.38718746    -0.06000
C1113       C  0.71803471  0.26491526  0.35368178     0.00000
C1114       C  0.73688923  0.25420785  0.32546604    -0.08500
C1115       C  0.73123011  0.25488054  0.28487553     0.61900
H1116       H  0.77535228  0.23031738  0.31544299     0.12600
H1117       H  0.71812558  0.28191912  0.40884443     0.12600
C1118       C  0.77404679  0.27885284  0.42903548     0.62100
F1119       F  0.75572376  0.24839391  0.26437952    -0.23000
F1120       F  0.72231109  0.28268720  0.27465734    -0.20400
F1121       F  0.71163134  0.23444514  0.27613715    -0.20000
F1122       F  0.79625341  0.29755856  0.42385897    -0.20100
F1123       F  0.78386574  0.25450810  0.44806881    -0.20400
F1124       F  0.75350687  0.29355597  0.45058930    -0.23100
C1125       C  0.80484915  0.18446190  0.32292371    -0.05900
C1126       C  0.82995053  0.19429180  0.30663500     0.00000
C1127       C  0.83921373  0.18102925  0.27332174    -0.08600
C1128       C  0.81962200  0.16389304  0.25350425    -0.06000
C1129       C  0.79105365  0.16127807  0.26583246     0.00000
C1130       C  0.78511034  0.16825744  0.30288669    -0.08500
C1131       C  0.75802167  0.15921433  0.32162455     0.61900
H1132       H  0.79922102  0.19194232  0.35031422     0.12600
H1133       H  0.82555483  0.15527477  0.22679093     0.12600
C1134       C  0.86882916  0.18646782  0.25819654     0.62100
F1135       F  0.76371593  0.15177875  0.35748982    -0.23000
F1136       F  0.74734943  0.13489533  0.30450253    -0.20400
F1137       F  0.73771674  0.18210972  0.32120365    -0.20000
F1138       F  0.88931533  0.17868463  0.28394074    -0.20100
F1139       F  0.87099911  0.21580692  0.25014271    -0.20400
F1140       F  0.87458019  0.17015669  0.22675645    -0.23100
C1141       C  0.84501794  0.29337242  0.25461851    -0.05900
C1142       C  0.84139976  0.29979763  0.29199500     0.00000
C1143       C  0.82747723  0.32684533  0.30249266    -0.08600
C1144       C  0.81289395  0.34341979  0.27571488    -0.06000
C1145       C  0.81202189  0.33380173  0.23953416     0.00000
C1146       C  0.83177110  0.31125778  0.22784266    -0.08500
C1147       C  0.84037773  0.30769389  0.18793097     0.61900
H1148       H  0.85740026  0.27376396  0.24662227     0.12600
H1149       H  0.79984543  0.36259547  0.28335725     0.12600
C1150       C  0.82572058  0.33708467  0.34189579     0.62100
F1151       F  0.86064996  0.28497055  0.18287304    -0.23000
F1152       F  0.85231499  0.33326461  0.17634518    -0.20400
F1153       F  0.81709099  0.30228086  0.16615384    -0.20000
F1154       F  0.85306564  0.33892426  0.35605232    -0.20100
F1155       F  0.81044753  0.31759971  0.36188282    -0.20400
F1156       F  0.81196793  0.36443053  0.34548836    -0.23100
C1157       C  0.88398934  0.26302767  0.43425079    -0.05900
C1158       C  0.88923208  0.24989861  0.39955792     0.00000
C1159       C  0.91865399  0.24200217  0.39012063    -0.08600
C1160       C  0.94022605  0.24533968  0.41665226    -0.06000
C1161       C  0.93442450  0.25765660  0.45108924     0.00000
C1162       C  0.90588959  0.26681491  0.46015258    -0.08500
C1163       C  0.89841739  0.27994226  0.49743915     0.61900
H1164       H  0.86274252  0.27164131  0.44101749     0.12600
H1165       H  0.96225464  0.23816971  0.41071652     0.12600
C1166       C  0.92848819  0.22916527  0.35317183     0.62100
F1167       F  0.86909726  0.28538004  0.50184369    -0.23000
F1168       F  0.91189814  0.30616579  0.50194786    -0.20400
F1169       F  0.90738880  0.26074539  0.52437029    -0.20000
F1170       F  0.95790437  0.23110606  0.34824749    -0.20100
F1171       F  0.91564128  0.24383681  0.32444286    -0.20400
F1172       F  0.92247085  0.19983105  0.35124251    -0.23100
C1173       C  0.59275784  0.23342725  0.64268297    -0.05900
C1174       C  0.61080237  0.25768853  0.64200024     0.00000
C1175       C  0.60530994  0.27939680  0.61443396    -0.08600
C1176       C  0.58071089  0.27696381  0.59237473    -0.06000
C1177       C  0.56238248  0.25344220  0.59481301     0.00000
C1178       C  0.56848540  0.23113925  0.62040401    -0.08500
C1179       C  0.54958799  0.20487576  0.62470688     0.61900
H1180       H  0.59821683  0.21484409  0.65930008     0.12600
H1181       H  0.57582972  0.29332019  0.57190558     0.12600
C1182       C  0.62502472  0.30467907  0.60608192     0.62100
F1183       F  0.55258690  0.18667015  0.59441980    -0.23000
F1184       F  0.52108673  0.21425220  0.62868620    -0.20400
F1185       F  0.55689465  0.18849085  0.65514887    -0.20000
F1186       F  0.62514218  0.32467747  0.63446221    -0.20100
F1187       F  0.61614236  0.32006500  0.57547551    -0.20400
F1188       F  0.65274888  0.29436043  0.59895763    -0.23100
C1189       C  0.68025449  0.17343540  0.78674812    -0.05900
C1190       C  0.69101739  0.19017461  0.81566836     0.00000
C1191       C  0.68159702  0.21976427  0.81836775    -0.08600
C1192       C  0.67133056  0.23398788  0.78744257    -0.06000
C1193       C  0.66415825  0.21837643  0.75615152     0.00000
C1194       C  0.66464072  0.18716815  0.75794280    -0.08500
C1195       C  0.64831283  0.16866301  0.73110818     0.61900
H1196       H  0.68469070  0.14999094  0.78636022     0.12600
H1197       H  0.66828709  0.25745917  0.78828443     0.12600
C1198       C  0.67992099  0.23622464  0.85387609     0.62100
F1199       F  0.65342453  0.13901997  0.73691231    -0.23000
F1200       F  0.65591360  0.17452127  0.69558932    -0.20400
F1201       F  0.61914664  0.17469380  0.73568760    -0.20000
F1202       F  0.70029895  0.25729844  0.85405310    -0.20100
F1203       F  0.68388000  0.21738052  0.88268966    -0.20400
F1204       F  0.65287614  0.24963341  0.85790011    -0.23100
C1205       C  0.72421061  0.09201365  0.95775499    -0.05900
C1206       C  0.74621845  0.07054256  0.95326352     0.00000
C1207       C  0.76498478  0.07211709  0.92299835    -0.08600
C1208       C  0.76187648  0.09620987  0.89942709    -0.06000
C1209       C  0.74132356  0.11957203  0.90532893     0.00000
C1210       C  0.72090367  0.11622541  0.93447172    -0.08500
C1211       C  0.69479804  0.13626936  0.94369757     0.61900
H1212       H  0.70922691  0.08993826  0.98032880     0.12600
H1213       H  0.77582220  0.09613591  0.87609246     0.12600
C1214       C  0.78787112  0.04815211  0.91499673     0.62100
F1215       F  0.69756338  0.14707307  0.97889208    -0.23000
F1216       F  0.67033484  0.11999479  0.94224473    -0.20400
F1217       F  0.69034090  0.15969358  0.92097748    -0.20000
F1218       F  0.77550938  0.02108586  0.91431007    -0.20100
F1219       F  0.80877865  0.04842217  0.94167558    -0.20400
F1220       F  0.80127185  0.05187552  0.88159989    -0.23100
C1221       C  0.73495993  0.27087338  0.64518768    -0.05900
C1222       C  0.71939562  0.24748175  0.65859274     0.00000
C1223       C  0.73388217  0.21983018  0.66250899    -0.08600
C1224       C  0.76400555  0.21788946  0.66002503    -0.06000
C1225       C  0.77990270  0.24231936  0.65211726     0.00000
C1226       C  0.76521922  0.26847755  0.64091893    -0.08500
C1227       C  0.78145066  0.29369289  0.62521935     0.61900
H1228       H  0.72348406  0.29135349  0.63957311     0.12600
H1229       H  0.77551420  0.19775386  0.66727448     0.12600
C1230       C  0.71801552  0.19272260  0.67148023     0.62100
F1231       F  0.76293644  0.31637867  0.61430306    -0.23000
F1232       F  0.79713828  0.28385003  0.59503945    -0.20400
F1233       F  0.80005502  0.30473369  0.65063540    -0.20000
F1234       F  0.73516351  0.16750384  0.66662848    -0.20100
F1235       F  0.69444836  0.19068533  0.64889506    -0.20400
F1236       F  0.70948073  0.19431726  0.70744982    -0.23100
C1237       C  0.80546878  0.18127255  0.74237547    -0.05900
C1238       C  0.82619958  0.20180627  0.75057028     0.00000
C1239       C  0.83141719  0.20872339  0.78766721    -0.08600
C1240       C  0.81298713  0.19806060  0.81478445    -0.06000
C1241       C  0.78963412  0.18090736  0.80591211     0.00000
C1242       C  0.78755713  0.17001231  0.76966905    -0.08500
C1243       C  0.76664281  0.14663091  0.75989023     0.61900
H1244       H  0.80239205  0.17530264  0.71405110     0.12600
H1245       H  0.81670447  0.20313005  0.84312117     0.12600
C1246       C  0.85618769  0.22745637  0.79841098     0.62100
F1247       F  0.76892649  0.13825897  0.72352894    -0.23000
F1248       F  0.73887495  0.15700700  0.76634358    -0.20400
F1249       F  0.77222900  0.12205395  0.78082926    -0.20000
F1250       F  0.85277331  0.25476857  0.78309650    -0.20100
F1251       F  0.88172549  0.21421263  0.78610485    -0.20400
F1252       F  0.85793886  0.23116159  0.83589472    -0.23100
C1253       C  0.91115017  0.26375725  0.65767403    -0.05900
C1254       C  0.88976557  0.24342717  0.65026433     0.00000
C1255       C  0.89541390  0.22239025  0.62156188    -0.08600
C1256       C  0.91872358  0.22645344  0.59782948    -0.06000
C1257       C  0.93790465  0.24896217  0.60295836     0.00000
C1258       C  0.93505429  0.26700528  0.63452663    -0.08500
C1259       C  0.95720820  0.28939580  0.64419157     0.61900
H1260       H  0.90928564  0.27738743  0.68182641     0.12600
H1261       H  0.92181339  0.21181650  0.57450054     0.12600
C1262       C  0.87809974  0.19546378  0.61324598     0.62100
F1263       F  0.95331040  0.30036474  0.67933306    -0.23000
F1264       F  0.95499252  0.31269121  0.62042532    -0.20400
F1265       F  0.98462676  0.27656090  0.64199044    -0.20000
F1266       F  0.89676353  0.17132485  0.60866012    -0.20100
F1267       F  0.86318530  0.19982930  0.58105106    -0.20400
F1268       F  0.85892576  0.18848680  0.64027782    -0.23100
C1269       C  0.72802289  0.27910292  0.91899640    -0.05900
C1270       C  0.74905408  0.29231401  0.89810518     0.00000
C1271       C  0.77391765  0.27536385  0.88768265    -0.08600
C1272       C  0.77296416  0.24485002  0.88910738    -0.06000
C1273       C  0.74917482  0.23088820  0.90313924     0.00000
C1274       C  0.72849631  0.24844082  0.92358305    -0.08500
C1275       C  0.70728750  0.23708551  0.95102846     0.61900
H1276       H  0.71016791  0.29253032  0.92987931     0.12600
H1277       H  0.79049799  0.23177660  0.87744282     0.12600
C1278       C  0.80175881  0.28804241  0.87482596     0.62100
F1279       F  0.71354950  0.24845237  0.98509177    -0.23000
F1280       F  0.70851150  0.20707058  0.95341303    -0.20400
F1281       F  0.67952069  0.24635714  0.94223725    -0.20000
F1282       F  0.80140545  0.31821335  0.87761243    -0.20100
F1283       F  0.80726462  0.27959093  0.83906073    -0.20400
F1284       F  0.82405355  0.27717760  0.89625684    -0.23100
C1285       C  0.70033869  0.34613854  0.76695957    -0.05900
C1286       C  0.68966310  0.34001827  0.80195398     0.00000
C1287       C  0.66413358  0.32444959  0.80488769    -0.08600
C1288       C  0.65315901  0.31088874  0.77328208    -0.06000
C1289       C  0.66731194  0.31237664  0.73935569     0.00000
C1290       C  0.68929660  0.33277735  0.73537407    -0.08500
C1291       C  0.70236741  0.34043990  0.69892524     0.61900
H1292       H  0.71914066  0.35930827  0.76451931     0.12600
H1293       H  0.63497430  0.29689587  0.77551990     0.12600
C1294       C  0.64896633  0.32216233  0.84135577     0.62100
F1295       F  0.70034232  0.37051402  0.69464337    -0.23000
F1296       F  0.68852756  0.32780828  0.66981022    -0.20400
F1297       F  0.73107157  0.33142788  0.69805627    -0.20000
F1298       F  0.64135095  0.35002914  0.85406670    -0.20100
F1299       F  0.66694798  0.30854606  0.86643568    -0.20400
F1300       F  0.62421020  0.30643628  0.83854029    -0.23100
C1301       C  0.78360518  0.29881882  0.73176537    -0.05900
C1302       C  0.81353536  0.29997128  0.73212412     0.00000
C1303       C  0.82586685  0.31869717  0.75836216    -0.08600
C1304       C  0.80755408  0.33114096  0.78603351    -0.06000
C1305       C  0.77880590  0.32231914  0.79058960     0.00000
C1306       C  0.76848218  0.30200918  0.76441102    -0.08500
C1307       C  0.74808552  0.27761878  0.77278286     0.61900
H1308       H  0.77350490  0.28759855  0.70949742     0.12600
H1309       H  0.81638345  0.34598640  0.80577326     0.12600
C1310       C  0.85710537  0.32695282  0.75626354     0.62100
F1311       F  0.72014793  0.28809459  0.77499582    -0.23000
F1312       F  0.75650567  0.26400897  0.80469644    -0.20400
F1313       F  0.74860882  0.25589186  0.74624541    -0.20000
F1314       F  0.86190329  0.34085303  0.72354670    -0.20100
F1315       F  0.87526170  0.30240714  0.75863124    -0.20400
F1316       F  0.86407412  0.34597896  0.78422859    -0.23100
C1317       C  0.77332934  0.39960521  0.91241190    -0.05900
C1318       C  0.75174833  0.40136590  0.88560578     0.00000
C1319       C  0.73659686  0.42866580  0.88133010    -0.08600
C1320       C  0.73687020  0.44911193  0.91025333    -0.06000
C1321       C  0.75478019  0.44470981  0.94057241     0.00000
C1322       C  0.77440390  0.42014954  0.94100192    -0.08500
C1323       C  0.79479223  0.41417356  0.97267170     0.61900
H1324       H  0.78768789  0.38036864  0.91270575     0.12600
H1325       H  0.72399308  0.46935598  0.90834741     0.12600
C1326       C  0.72396669  0.43910000  0.84545860     0.62100
F1327       F  0.80892703  0.38699234  0.96952396    -0.23000
F1328       F  0.77947409  0.41468758  0.00516361    -0.20400
F1329       F  0.81544975  0.43510179  0.97384600    -0.20000
F1330       F  0.69430482  0.44152656  0.84816940    -0.20100
F1331       F  0.73191739  0.42071029  0.81658970    -0.20400
F1332       F  0.73411353  0.46644530  0.83760120    -0.23100
C1333       C  0.74630618  0.87145682  0.86913286     0.86300
C1334       C  0.71663292  0.86930924  0.85046156    -0.53900
C1335       C  0.71231396  0.84269042  0.83469548     0.09300
C1336       C  0.73735938  0.82036502  0.84084177     0.20200
C1337       C  0.74683084  0.84607300  0.89698400    -0.54600
C1338       C  0.74323333  0.81941126  0.88172177     0.09400
C1339       C  0.76833796  0.86140746  0.83917627    -0.54200
C1340       C  0.76390271  0.83423228  0.82381844     0.09900
H1341       H  0.70115438  0.88734865  0.84732589     0.14400
H1342       H  0.73165624  0.79859786  0.83259038     0.00200
H1343       H  0.75161978  0.84851210  0.92581149     0.14800
H1344       H  0.78545237  0.87530560  0.83060549     0.14500
C1345       C  0.86826104  0.74483895  0.67622046     0.86300
C1346       C  0.86698342  0.72122085  0.70625532    -0.53900
C1347       C  0.84116754  0.72099386  0.72387963     0.09300
C1348       C  0.81958719  0.74424861  0.71083445     0.20200
C1349       C  0.84189891  0.74082566  0.65123167    -0.54600
C1350       C  0.81649066  0.74047111  0.66964071     0.09400
C1351       C  0.85977663  0.77425052  0.69681379    -0.54200
C1352       C  0.83413008  0.77367894  0.71543905     0.09900
H1353       H  0.88470568  0.70591884  0.71243311     0.14400
H1354       H  0.79910769  0.74233950  0.72549435     0.00200
H1355       H  0.84322544  0.73928063  0.62166972     0.14800
H1356       H  0.87108739  0.79428073  0.69429627     0.14500
C1357       C  0.74548931  0.64566950  0.87911539     0.86300
C1358       C  0.77190585  0.64811484  0.85332285    -0.53900
C1359       C  0.77190725  0.67317079  0.83371568     0.09300
C1360       C  0.74612559  0.69442577  0.84262768     0.20200
C1361       C  0.74704061  0.67361334  0.90333266    -0.54600
C1362       C  0.74654932  0.69930511  0.88458970     0.09400
C1363       C  0.71945498  0.65060590  0.85334335    -0.54200
C1364       C  0.71930297  0.67652526  0.83506581     0.09900
H1365       H  0.78984423  0.63248732  0.85050836     0.14400
H1366       H  0.74651215  0.71492723  0.82682979    -0.01000
H1367       H  0.74956300  0.67277141  0.93274946     0.14800
H1368       H  0.70234083  0.63523789  0.85063998     0.14500
C1369       C  0.64460008  0.75971956  0.66401204     0.86300
C1370       C  0.64766339  0.78770782  0.68736446    -0.53900
C1371       C  0.67124858  0.78714876  0.70930436     0.09300
C1372       C  0.68931651  0.75783545  0.70640810     0.20200
C1373       C  0.67350308  0.75433235  0.64364573    -0.54600
C1374       C  0.69690529  0.75319193  0.66577248     0.09400
C1375       C  0.64406736  0.73567861  0.69389432    -0.54200
C1376       C  0.66803348  0.73374121  0.71500885     0.09900
H1377       H  0.63166899  0.80562782  0.68827597     0.14400
H1378       H  0.70829545  0.75697104  0.72417525     0.00200
H1379       H  0.67513040  0.75081602  0.61432066     0.14800
H1380       H  0.62530375  0.72333760  0.70047605     0.14500
C1381       C  0.86732982  0.74983852  0.37445406     0.86300
C1382       C  0.86926067  0.77619702  0.34871592    -0.53900
C1383       C  0.84925748  0.77707513  0.32201732     0.09300
C1384       C  0.82893892  0.75172569  0.32324971     0.20200
C1385       C  0.83541580  0.75208649  0.38893844    -0.54600
C1386       C  0.81483144  0.75332968  0.36188655     0.09400
C1387       C  0.86701732  0.72192648  0.35042578    -0.54200
C1388       C  0.84721460  0.72286728  0.32326577     0.09900
H1389       H  0.88494335  0.79301820  0.35193140     0.14400
H1390       H  0.81442533  0.75335819  0.29943521     0.00200
H1391       H  0.82974915  0.75020133  0.41725190     0.14800
H1392       H  0.87777684  0.70148080  0.35824738     0.14500
C1393       C  0.75706470  0.86543498  0.17598253     0.86300
C1394       C  0.78611571  0.86397568  0.19636852    -0.53900
C1395       C  0.78824173  0.84244416  0.22174814     0.09300
C1396       C  0.76039206  0.82540316  0.22634898     0.20200
C1397       C  0.75243879  0.83400916  0.16184225    -0.54600
C1398       C  0.75391248  0.81305550  0.18815872     0.09400
C1399       C  0.73476061  0.86984933  0.20761497    -0.54200
C1400       C  0.73605024  0.84872393  0.23381101     0.09900
H1401       H  0.80351947  0.87850850  0.19123149     0.14400
H1402       H  0.76238113  0.80801929  0.24703074     0.00200
H1403       H  0.74971914  0.82889494  0.13313516     0.14800
H1404       H  0.71850224  0.88748870  0.20910809     0.14500
C1405       C  0.63643389  0.76708038  0.36923620     0.86300
C1406       C  0.63219236  0.74169440  0.34200420    -0.53900
C1407       C  0.65065499  0.74089735  0.31324863     0.09300
C1408       C  0.67126754  0.76613868  0.31361247     0.20200
C1409       C  0.66898596  0.76452833  0.37943870    -0.54600
C1410       C  0.68804348  0.76379347  0.35006997     0.09400
C1411       C  0.63555722  0.79561329  0.34634768    -0.54200
C1412       C  0.65364688  0.79486659  0.31707617     0.09900
H1413       H  0.61713986  0.72450038  0.34664118     0.14400
H1414       H  0.68236348  0.76662129  0.28777329     0.00200
H1415       H  0.67609881  0.76455205  0.40731622     0.14800
H1416       H  0.62644789  0.81641544  0.35643531     0.14500
C1417       C  0.74888029  0.63431743  0.18725568     0.86300
C1418       C  0.72136808  0.63777709  0.21107682    -0.53900
C1419       C  0.72071051  0.66136452  0.23424151     0.09300
C1420       C  0.74848630  0.67883106  0.23246469     0.20200
C1421       C  0.75224574  0.66427906  0.16865848    -0.54600
C1422       C  0.75171181  0.68759385  0.19217718     0.09400
C1423       C  0.77398592  0.63344559  0.21563729    -0.54200
C1424       C  0.77354805  0.65663522  0.23946088     0.09900
H1425       H  0.70293277  0.62416889  0.20749853     0.14400
H1426       H  0.74867485  0.69767110  0.25120335     0.00200
H1427       H  0.75471677  0.66677021  0.13935850     0.14800
H1428       H  0.79164030  0.61743416  0.21679637     0.14500
O1429       O  0.72728469  0.53506377  0.98872564    -0.71900
O1430       O  0.72502516  0.97123175  0.05569548    -0.72200
O1431       O  0.72604193  0.53144840  0.06180349    -0.72000
O1432       O  0.72829322  0.97646055  0.98259817    -0.72000
O1433       O  0.77475628  0.97693889  0.98696175    -0.72000
O1434       O  0.77266243  0.53069508  0.06239869    -0.72000
O1435       O  0.77131147  0.97284647  0.05995737    -0.71900
O1436       O  0.77397328  0.53407722  0.98914593    -0.72100
V1437       V  0.72826505  0.50393201  0.02220657     1.35200
V1438       V  0.77308911  0.50310938  0.02356566     1.35200
C1439       C  0.75051044  0.54498602  0.97707867     0.77300
C1440       C  0.74818863  0.96108175  0.06928868     0.77400
C1441       C  0.74906266  0.54039565  0.07565588     0.77200
C1442       C  0.75286973  0.96726843  0.97140933     0.77200
O1443       O  0.53405398  0.73282552  0.55758764    -0.71900
O1444       O  0.97592320  0.73158914  0.48729437    -0.72200
O1445       O  0.53274904  0.73453369  0.48515303    -0.72000
O1446       O  0.97695016  0.72855191  0.56036567    -0.72000
O1447       O  0.97415500  0.77586390  0.56583873    -0.72000
O1448       O  0.52676807  0.78184165  0.48676823    -0.72000
O1449       O  0.97025043  0.77887512  0.49299939    -0.71900
O1450       O  0.53027247  0.78016189  0.55953352    -0.72100
V1451       V  0.00520432  0.73249705  0.52324279     1.35200
V1452       V  0.00119498  0.77805509  0.52694630     1.35200
C1453       C  0.54289291  0.75665949  0.56998160     0.77300
C1454       C  0.96234627  0.75508451  0.47902310     0.77400
C1455       C  0.53987720  0.75930122  0.47368115     0.77200
C1456       C  0.96619336  0.75116342  0.57631879     0.77200
C1457       C  0.72722140  0.58493253  0.10492914    -0.05900
C1458       C  0.74850111  0.56251038  0.10570362     0.00000
C1459       C  0.76875432  0.56211765  0.13437607    -0.08600
C1460       C  0.76743856  0.58498741  0.16047755    -0.06000
C1461       C  0.74720885  0.60895312  0.15893117     0.00000
C1462       C  0.72598519  0.60824466  0.13046287    -0.08500
C1463       C  0.70117679  0.63047211  0.12381591     0.61900
H1464       H  0.71154219  0.58470512  0.08309483     0.12600
H1465       H  0.78269075  0.58355954  0.18215760     0.12600
C1466       C  0.79135363  0.53726561  0.13826082     0.62100
F1467       F  0.70388314  0.64160205  0.08900440    -0.23000
F1468       F  0.69912182  0.65390476  0.14762844    -0.20400
F1469       F  0.67551226  0.61621260  0.12586501    -0.20000
F1470       F  0.81136913  0.53827535  0.11029602    -0.20100
F1471       F  0.77825430  0.51058462  0.13724638    -0.20400
F1472       F  0.80614848  0.53896857  0.17087289    -0.23100
C1473       C  0.66607353  0.68826717  0.30573679    -0.05900
C1474       C  0.65661838  0.71457159  0.28931608     0.00000
C1475       C  0.66058153  0.71733703  0.25120047    -0.08600
C1476       C  0.67982954  0.69760903  0.23293141    -0.06000
C1477       C  0.69349527  0.67408428  0.25107088     0.00000
C1478       C  0.68328916  0.66709872  0.28643283    -0.08500
C1479       C  0.68869164  0.63773348  0.30436721     0.61900
H1480       H  0.66141627  0.68488620  0.33438178     0.12600
H1481       H  0.68534548  0.70151026  0.20476809     0.12600
C1482       C  0.64674300  0.74199505  0.22962684     0.62100
F1483       F  0.70247038  0.64139672  0.33734670    -0.23000
F1484       F  0.70481146  0.61832545  0.28267187    -0.20400
F1485       F  0.66247583  0.62547444  0.31109452    -0.20000
F1486       F  0.66741497  0.76154233  0.22047247    -0.20100
F1487       F  0.62484651  0.75648991  0.24907312    -0.20400
F1488       F  0.63504812  0.73087276  0.19797020    -0.23100
C1489       C  0.58780751  0.78395302  0.39567912    -0.05900
C1490       C  0.61328034  0.76618954  0.40004073     0.00000
C1491       C  0.61298405  0.74446007  0.42812035    -0.08600
C1492       C  0.58843165  0.74306915  0.45099192    -0.06000
C1493       C  0.56405684  0.76183921  0.44711249     0.00000
C1494       C  0.56362394  0.78257396  0.41877900    -0.08500
C1495       C  0.53721826  0.80243362  0.41173598     0.61900
H1496       H  0.58593226  0.79848186  0.37280433     0.12600
H1497       H  0.58834983  0.72753995  0.47314595     0.12600
C1498       C  0.63818384  0.72310177  0.43603631     0.62100
F1499       F  0.53956923  0.81779986  0.37953215    -0.23000
F1500       F  0.53363381  0.82270513  0.43984114    -0.20400
F1501       F  0.51301722  0.78584778  0.40927916    -0.20000
F1502       F  0.65923055  0.73753272  0.45467996    -0.20100
F1503       F  0.64954764  0.71057036  0.40441139    -0.20400
F1504       F  0.62990684  0.70026440  0.45783527    -0.23100
C1505       C  0.77787153  0.76430227  0.19102807    -0.05900
C1506       C  0.75338106  0.78080620  0.18101561     0.00000
C1507       C  0.72939435  0.76587983  0.16724727    -0.08600
C1508       C  0.72991785  0.73481914  0.16877610    -0.06000
C1509       C  0.75440131  0.71868085  0.18071150     0.00000
C1510       C  0.77967059  0.73387738  0.18737439    -0.08500
C1511       C  0.80920730  0.71959778  0.19004880     0.61900
H1512       H  0.79606268  0.77510935  0.20219596     0.12600
H1513       H  0.71120486  0.72298800  0.16097954     0.12600
C1514       C  0.70328432  0.78235355  0.15208546     0.62100
F1515       F  0.82742160  0.73260915  0.16558176    -0.23000
F1516       F  0.80946863  0.69007984  0.18169790    -0.20400
F1517       F  0.81927281  0.72414544  0.22484212    -0.20000
F1518       F  0.71083183  0.79665953  0.12062029    -0.20100
F1519       F  0.69266694  0.80261220  0.17741147    -0.20400
F1520       F  0.68152078  0.76371394  0.14335539    -0.23100
C1521       C  0.69202532  0.82991721  0.31857086    -0.05900
C1522       C  0.66660172  0.82142973  0.30182795     0.00000
C1523       C  0.66117639  0.83028354  0.26563883    -0.08600
C1524       C  0.68376595  0.84175414  0.24512873    -0.06000
C1525       C  0.71148952  0.84439926  0.25985901     0.00000
C1526       C  0.71487602  0.84084462  0.29811930    -0.08500
C1527       C  0.74267349  0.84683541  0.31734979     0.61900
H1528       H  0.69535094  0.82425224  0.34692241     0.12600
H1529       H  0.68008808  0.84702059  0.21671988     0.12600
C1530       C  0.63198238  0.82818561  0.24795856     0.62100
F1531       F  0.76293869  0.82507874  0.30858073    -0.23000
F1532       F  0.73939241  0.84717818  0.35496668    -0.20400
F1533       F  0.75202793  0.87389836  0.30705548    -0.20000
F1534       F  0.62198829  0.85599250  0.23853383    -0.20100
F1535       F  0.61193458  0.81641053  0.27104543    -0.20400
F1536       F  0.63427896  0.81115063  0.21661968    -0.23100
C1537       C  0.77503087  0.91991875  0.09890378    -0.05900
C1538       C  0.74876949  0.93570265  0.09487409     0.00000
C1539       C  0.72427613  0.92598438  0.11402350    -0.08600
C1540       C  0.72788826  0.90257313  0.13861032    -0.06000
C1541       C  0.75478961  0.88818501  0.14495899     0.00000
C1542       C  0.77794091  0.89500750  0.12103806    -0.08500
C1543       C  0.80544615  0.87641096  0.11516438     0.61900
H1544       H  0.79339995  0.92609859  0.08275781     0.12600
H1545       H  0.70911623  0.89482339  0.15229924     0.12600
C1546       C  0.69432766  0.93993697  0.10905327     0.62100
F1547       F  0.81124885  0.87370275  0.07811738    -0.23000
F1548       F  0.80362085  0.84839176  0.12806346    -0.20400
F1549       F  0.82820164  0.88985039  0.13165167    -0.20000
F1550       F  0.68533145  0.93542483  0.07356740    -0.20100
F1551       F  0.69463033  0.96965610  0.11662983    -0.20400
F1552       F  0.67422704  0.92806732  0.13206215    -0.23100
C1553       C  0.76805089  0.74331713  0.33509018    -0.05900
C1554       C  0.78210158  0.75372250  0.36574780     0.00000
C1555       C  0.76420795  0.76649538  0.39397615    -0.08600
C1556       C  0.73384520  0.76941444  0.38786783    -0.06000
C1557       C  0.72094069  0.76225431  0.35391337     0.00000
C1558       C  0.74031053  0.75235704  0.32570794    -0.08500
C1559       C  0.73480939  0.75302004  0.28501622     0.61900
H1560       H  0.77964421  0.72973473  0.31568437     0.12600
H1561       H  0.72025213  0.77822666  0.40957946     0.12600
C1562       C  0.77582971  0.77501265  0.43110786     0.62100
F1563       F  0.75955995  0.74739190  0.26457019    -0.23000
F1564       F  0.72510174  0.78057892  0.27488167    -0.20400
F1565       F  0.71579005  0.73205636  0.27598080    -0.20000
F1566       F  0.79775222  0.79430755  0.42756611    -0.20100
F1567       F  0.78582097  0.75008523  0.44885695    -0.20400
F1568       F  0.75479380  0.78851402  0.45304834    -0.23100
C1569       C  0.81114596  0.68455830  0.32379158    -0.05900
C1570       C  0.83551871  0.69568448  0.30718333     0.00000
C1571       C  0.84450715  0.68407976  0.27294113    -0.08600
C1572       C  0.82533555  0.66656108  0.25318236    -0.06000
C1573       C  0.79718201  0.66258930  0.26613487     0.00000
C1574       C  0.79136637  0.66869959  0.30345807    -0.08500
C1575       C  0.76389281  0.65996008  0.32159138     0.61900
H1576       H  0.80573218  0.69147021  0.35145624     0.12600
H1577       H  0.83115667  0.65861103  0.22615031     0.12600
C1578       C  0.87328291  0.69172446  0.25680484     0.62100
F1579       F  0.76746460  0.65703785  0.35890221    -0.23000
F1580       F  0.75587100  0.63325747  0.30777068    -0.20400
F1581       F  0.74247212  0.68110126  0.31555737    -0.20000
F1582       F  0.89500954  0.68322559  0.28051446    -0.20100
F1583       F  0.87410866  0.72160698  0.25156701    -0.20400
F1584       F  0.87838891  0.67775963  0.22354534    -0.23100
C1585       C  0.84865034  0.79609050  0.25877719    -0.05900
C1586       C  0.84407203  0.80168748  0.29616078     0.00000
C1587       C  0.82914404  0.82808394  0.30696903    -0.08600
C1588       C  0.81445760  0.84462845  0.28014950    -0.06000
C1589       C  0.81451355  0.83550733  0.24365155     0.00000
C1590       C  0.83535535  0.81400670  0.23211194    -0.08500
C1591       C  0.84533211  0.81203382  0.19264579     0.61900
H1592       H  0.86201917  0.77720992  0.25063468     0.12600
H1593       H  0.80083009  0.86335020  0.28787066     0.12600
C1594       C  0.82697164  0.83771503  0.34661179     0.62100
F1595       F  0.86631407  0.79000779  0.18748866    -0.23000
F1596       F  0.85691504  0.83835936  0.18321631    -0.20400
F1597       F  0.82292092  0.80675495  0.16939655    -0.20000
F1598       F  0.85422294  0.84076623  0.36065217    -0.20100
F1599       F  0.81284671  0.81718274  0.36640480    -0.20400
F1600       F  0.81192704  0.86431930  0.35077483    -0.23100
C1601       C  0.88710311  0.75803750  0.43855584    -0.05900
C1602       C  0.89256151  0.74965095  0.40182417     0.00000
C1603       C  0.92213838  0.74413966  0.39085897    -0.08600
C1604       C  0.94393375  0.74652400  0.41719230    -0.06000
C1605       C  0.93796671  0.75448521  0.45333121     0.00000
C1606       C  0.90916859  0.75991747  0.46456175    -0.08500
C1607       C  0.90173383  0.76650755  0.50429229     0.61900
H1608       H  0.86553394  0.76390332  0.44730447     0.12600
H1609       H  0.96622145  0.74157201  0.40990975     0.12600
C1610       C  0.93200541  0.73346225  0.35287801     0.62100
F1611       F  0.87231587  0.76948098  0.51013195    -0.23000
F1612       F  0.91393844  0.79224851  0.51525161    -0.20400
F1613       F  0.91221670  0.74376933  0.52565125    -0.20000
F1614       F  0.96094301  0.73807481  0.34717416    -0.20100
F1615       F  0.91748700  0.74778904  0.32517988    -0.20400
F1616       F  0.92831145  0.70367891  0.34973416    -0.23100
C1617       C  0.60459980  0.73364380  0.63295712    -0.05900
C1618       C  0.61891539  0.76001290  0.63774210     0.00000
C1619       C  0.60939244  0.78462721  0.61655414    -0.08600
C1620       C  0.58340424  0.78300180  0.59716677    -0.06000
C1621       C  0.56828859  0.75702144  0.59454669     0.00000
C1622       C  0.57922527  0.73170597  0.61283171    -0.08500
C1623       C  0.56447020  0.70250724  0.61195025     0.61900
H1624       H  0.61388055  0.71374877  0.64426975     0.12600
H1625       H  0.57557022  0.80204495  0.58222559     0.12600
C1626       C  0.62574285  0.81262479  0.61168049     0.62100
F1627       F  0.56682773  0.69009939  0.57739978    -0.23000
F1628       F  0.53577833  0.70670025  0.62156234    -0.20400
F1629       F  0.57664908  0.68262006  0.63624099    -0.20000
F1630       F  0.61349516  0.83460384  0.63362210    -0.20100
F1631       F  0.62400418  0.82155988  0.57569698    -0.20400
F1632       F  0.65464526  0.80922881  0.61946162    -0.23100
C1633       C  0.68757607  0.67039206  0.77970991    -0.05900
C1634       C  0.69602144  0.68727119  0.80977178     0.00000
C1635       C  0.68558360  0.71653447  0.81194930    -0.08600
C1636       C  0.67576283  0.73038163  0.78055082    -0.06000
C1637       C  0.67150898  0.71500084  0.74808999     0.00000
C1638       C  0.67414921  0.68363386  0.74898873    -0.08500
C1639       C  0.66374256  0.66284465  0.71972223     0.61900
H1640       H  0.69273928  0.64703489  0.77933284     0.12600
H1641       H  0.67139692  0.75367830  0.78165569     0.12600
C1642       C  0.68324628  0.73327419  0.84725385     0.62100
F1643       F  0.68650591  0.64523500  0.70677473    -0.23000
F1644       F  0.65091201  0.67676716  0.69056873    -0.20400
F1645       F  0.64368048  0.64501829  0.73509157    -0.20000
F1646       F  0.70408503  0.75389331  0.84823516    -0.20100
F1647       F  0.68603424  0.71448877  0.87629747    -0.20400
F1648       F  0.65641584  0.74729843  0.85009705    -0.23100
C1649       C  0.72757379  0.59078766  0.95529560    -0.05900
C1650       C  0.74947403  0.56923597  0.95062349     0.00000
C1651       C  0.76758023  0.57012252  0.91966555    -0.08600
C1652       C  0.76416678  0.59393618  0.89574888    -0.06000
C1653       C  0.74397650  0.61755120  0.90212326     0.00000
C1654       C  0.72373393  0.61442552  0.93139001    -0.08500
C1655       C  0.69732023  0.63414867  0.94002468     0.61900
H1656       H  0.71292227  0.58909027  0.97828963     0.12600
H1657       H  0.77732800  0.59340030  0.87161731     0.12600
C1658       C  0.78993347  0.54571850  0.91130745     0.62100
F1659       F  0.70042674  0.64662592  0.97428899    -0.23000
F1660       F  0.67328767  0.61720466  0.94056127    -0.20400
F1661       F  0.69184592  0.65623425  0.91559159    -0.20000
F1662       F  0.77705786  0.51891195  0.91116783    -0.20100
F1663       F  0.81126441  0.54568918  0.93745577    -0.20400
F1664       F  0.80290467  0.54905457  0.87756396    -0.23100
C1665       C  0.74330608  0.76829663  0.63875793    -0.05900
C1666       C  0.72685671  0.74586245  0.65275681     0.00000
C1667       C  0.74081688  0.71849414  0.66017145    -0.08600
C1668       C  0.77088991  0.71652754  0.66158455    -0.06000
C1669       C  0.78744989  0.74037487  0.65316758     0.00000
C1670       C  0.77372001  0.76601786  0.63872752    -0.08500
C1671       C  0.79093378  0.79114762  0.62468855     0.61900
H1672       H  0.73223272  0.78838347  0.63035698     0.12600
H1673       H  0.78149703  0.69655092  0.67120197     0.12600
C1674       C  0.72507382  0.69114369  0.66818296     0.62100
F1675       F  0.77324926  0.81401046  0.61236977    -0.23000
F1676       F  0.80820133  0.78129861  0.59592098    -0.20400
F1677       F  0.80804533  0.80203971  0.65189040    -0.20000
F1678       F  0.73770208  0.66763922  0.64908896    -0.20100
F1679       F  0.69666700  0.69364354  0.65772091    -0.20400
F1680       F  0.72688779  0.68568904  0.70507044    -0.23100
C1681       C  0.81276917  0.67967405  0.74375715    -0.05900
C1682       C  0.83247910  0.70085567  0.75324664     0.00000
C1683       C  0.83618480  0.70798241  0.79058066    -0.08600
C1684       C  0.81736010  0.69660471  0.81660690    -0.06000
C1685       C  0.79475426  0.67904299  0.80624729     0.00000
C1686       C  0.79396205  0.66827124  0.76983915    -0.08500
C1687       C  0.77312017  0.64529898  0.75847032     0.61900
H1688       H  0.81090647  0.67364963  0.71524922     0.12600
H1689       H  0.81949686  0.70234606  0.84504715     0.12600
C1690       C  0.85795314  0.72973081  0.80257064     0.62100
F1691       F  0.77562480  0.63814335  0.72172939    -0.23000
F1692       F  0.74543047  0.65564568  0.76492293    -0.20400
F1693       F  0.77826551  0.62008287  0.77834629    -0.20000
F1694       F  0.84832692  0.75737398  0.79269564    -0.20100
F1695       F  0.88428341  0.72316457  0.78613487    -0.20400
F1696       F  0.86179443  0.72958807  0.84003493    -0.23100
C1697       C  0.91639357  0.76556897  0.65855334    -0.05900
C1698       C  0.89666916  0.74307703  0.65434418     0.00000
C1699       C  0.90370354  0.72027680  0.62818039    -0.08600
C1700       C  0.92683780  0.72394089  0.60402672    -0.06000
C1701       C  0.94397995  0.74845975  0.60539627     0.00000
C1702       C  0.93960739  0.76900162  0.63434046    -0.08500
C1703       C  0.95930082  0.79441259  0.64014195     0.61900
H1704       H  0.91375865  0.78090390  0.68091083     0.12600
H1705       H  0.93113789  0.70744093  0.58297092     0.12600
C1706       C  0.88825470  0.69165665  0.62275717     0.62100
F1707       F  0.95400226  0.80868530  0.67318186    -0.23000
F1708       F  0.95508934  0.81469577  0.61272585    -0.20400
F1709       F  0.98771768  0.78424435  0.64000200    -0.20000
F1710       F  0.90821808  0.66843454  0.62469459    -0.20100
F1711       F  0.87598416  0.69144388  0.58843045    -0.20400
F1712       F  0.86707258  0.68651291  0.64796961    -0.23100
C1713       C  0.72765448  0.77693690  0.91747462    -0.05900
C1714       C  0.74992464  0.79103629  0.89992793     0.00000
C1715       C  0.77534930  0.77447653  0.89101829    -0.08600
C1716       C  0.77438550  0.74385112  0.88996984    -0.06000
C1717       C  0.75003949  0.72925285  0.90126136     0.00000
C1718       C  0.72824851  0.74613482  0.92077457    -0.08500
C1719       C  0.70606063  0.73396003  0.94629941     0.61900
H1720       H  0.70906701  0.78988741  0.92717492     0.12600
H1721       H  0.79257002  0.73130291  0.87904534     0.12600
C1722       C  0.80378246  0.78787939  0.88226862     0.62100
F1723       F  0.71043338  0.74505234  0.98102684    -0.23000
F1724       F  0.70788207  0.70395611  0.94822029    -0.20400
F1725       F  0.67858136  0.74267293  0.93559379    -0.20000
F1726       F  0.80287105  0.81796174  0.88671948    -0.20100
F1727       F  0.81181012  0.78086324  0.84682819    -0.20400
F1728       F  0.82456117  0.77642696  0.90556825    -0.23100
C1729       C  0.70554511  0.84541577  0.76803461    -0.05900
C1730       C  0.69358308  0.83902165  0.80217594     0.00000
C1731       C  0.66866173  0.82236624  0.80346394    -0.08600
C1732       C  0.65962497  0.80827477  0.77118476    -0.06000
C1733       C  0.67553954  0.80977896  0.73851880     0.00000
C1734       C  0.69689139  0.83093324  0.73598060    -0.08500
C1735       C  0.71215837  0.83632611  0.70038378     0.61900
H1736       H  0.72406793  0.85906273  0.76727838     0.12600
H1737       H  0.64142555  0.79421289  0.77193091     0.12600
C1738       C  0.65199476  0.81971576  0.83882355     0.62100
F1739       F  0.72928169  0.86040288  0.70261184    -0.23000
F1740       F  0.69223657  0.84127410  0.67301064    -0.20400
F1741       F  0.72943975  0.81211727  0.69165039    -0.20000
F1742       F  0.64267213  0.84737534  0.85057750    -0.20100
F1743       F  0.66930760  0.80706422  0.86536986    -0.20400
F1744       F  0.62812193  0.80287323  0.83442312    -0.23100
C1745       C  0.78838443  0.79706682  0.73458524    -0.05900
C1746       C  0.81835092  0.79835078  0.73556773     0.00000
C1747       C  0.83036225  0.81644973  0.76282564    -0.08600
C1748       C  0.81157330  0.82912503  0.78990169    -0.06000
C1749       C  0.78261088  0.82075410  0.79344873     0.00000
C1750       C  0.77267664  0.80046773  0.76691692    -0.08500
C1751       C  0.75284396  0.77563373  0.77546361     0.61900
H1752       H  0.77866539  0.78569640  0.71204863     0.12600
H1753       H  0.82016007  0.84370341  0.81014710     0.12600
C1754       C  0.86209598  0.82310972  0.76314062     0.62100
F1755       F  0.72454665  0.78517378  0.77617499    -0.23000
F1756       F  0.76088174  0.76320257  0.80824319    -0.20400
F1757       F  0.75477412  0.75321384  0.74987389    -0.20000
F1758       F  0.86888413  0.83788472  0.73169389    -0.20100
F1759       F  0.87899734  0.79762093  0.76509444    -0.20400
F1760       F  0.86890584  0.84062879  0.79266859    -0.23100
C1761       C  0.77481174  0.89968819  0.91467850    -0.05900
C1762       C  0.75364454  0.90078821  0.88732628     0.00000
C1763       C  0.73860614  0.92807711  0.88191571    -0.08600
C1764       C  0.73816671  0.94898487  0.91046589    -0.06000
C1765       C  0.75585100  0.94544924  0.94119607     0.00000
C1766       C  0.77598336  0.92129750  0.94215719    -0.08500
C1767       C  0.79745094  0.91718061  0.97300883     0.61900
H1768       H  0.78912648  0.88046351  0.91593660     0.12600
H1769       H  0.72500843  0.96898474  0.90785143     0.12600
C1770       C  0.72693363  0.93809754  0.84531566     0.62100
F1771       F  0.81290234  0.89070603  0.97015572    -0.23000
F1772       F  0.78312923  0.91772830  0.00621533    -0.20400
F1773       F  0.81692199  0.93928068  0.97224912    -0.20000
F1774       F  0.69725522  0.94114295  0.84692333    -0.20100
F1775       F  0.73513511  0.91912436  0.81713727    -0.20400
F1776       F  0.73778830  0.96507631  0.83712413    -0.23100
loop_ 
_geom_bond_atom_site_label_1 
_geom_bond_atom_site_label_2 
_geom_bond_distance 
_geom_bond_site_symmetry_2 
_ccdc_geom_bond_type 
C1            C2   1.550       .  S
C1            C7   1.548       .  S
C1            C5   1.552       .  S
C1          C430   1.539       .  S
C2            H9   1.081       .  S
C2            C3   1.364       .  D
C3            C4   1.533       .  S
C3          C398   1.491       .  S
C4            C8   1.541       .  S
C4            C6   1.524       .  S
C4           H10   1.079       .  S
C5           H11   1.086       .  S
C5            C6   1.351       .  D
C6          C382   1.486       .  S
C7           H12   1.084       .  S
C7            C8   1.380       .  D
C8          C417   1.518       .  S
C13          C14   1.554       .  S
C13          C19   1.568       .  S
C13          C17   1.549       .  S
C13         C366   1.543       .  S
C14          H21   1.086       .  S
C14          C15   1.362       .  D
C15          C16   1.515       .  S
C15         C350   1.496       .  S
C16          C20   1.538       .  S
C16          C18   1.524       .  S
C16          H22   1.096       .  S
C17          H23   1.085       .  S
C17          C18   1.358       .  D
C18         C337   1.481       .  S
C19          H24   1.077       .  S
C19          C20   1.376       .  D
C20         C414   1.508       .  S
C25          C26   1.560       .  S
C25          C31   1.548       .  S
C25          C29   1.548       .  S
C25         C321   1.550       .  S
C26          H33   1.080       .  S
C26          C27   1.363       .  D
C27          C28   1.546       .  S
C27         C353   1.503       .  S
C28          C32   1.542       .  S
C28          C30   1.550       .  S
C28          H34   1.105       .  S
C29          H35   1.086       .  S
C29          C30   1.363       .  D
C30         C385   1.503       .  S
C31          H36   1.086       .  S
C31          C32   1.364       .  D
C32         C302   1.498       .  S
C37          C38   1.545       .  S
C37          C43   1.557       .  S
C37          C41   1.546       .  S
C37         C286   1.545       .  S
C38          H45   1.083       .  S
C38          C39   1.364       .  D
C39          C40   1.553       .  S
C39         C401   1.501       .  S
C40          C44   1.544       .  S
C40          C42   1.538       .  S
C40          H46   1.105       .  S
C41          H47   1.086       .  S
C41          C42   1.361       .  D
C42         C334   1.497       .  S
C43          H48   1.084       .  S
C43          C44   1.362       .  D
C44         C305   1.494       .  S
C49          C50   1.541       .  S
C49          C55   1.545       .  S
C49          C53   1.571       .  S
C49         C270   1.551       .  S
C50          H57   1.086       .  S
C50          C51   1.354       .  D
C51          C52   1.525       .  S
C51         C254   1.491       .  S
C52          C56   1.538       .  S
C52          C54   1.558       .  S
C52          H58   1.107       .  S
C53          H59   1.074       .  S
C53          C54   1.382       .  D
C54         C222   1.532       .  S
C55          H60   1.083       .  S
C55          C56   1.362       .  D
C56         C238   1.491       .  S
C61          C62   1.545       .  S
C61          C67   1.556       .  S
C61          C65   1.546       .  S
C61         C209   1.544       .  S
C62          H69   1.083       .  S
C62          C63   1.358       .  D
C63          C64   1.545       .  S
C63         C257   1.489       .  S
C64          C68   1.542       .  S
C64          C66   1.539       .  S
C64          H70   1.106       .  S
C65          H71   1.084       .  S
C65          C66   1.367       .  D
C66         C174   1.492       .  S
C67          H72   1.084       .  S
C67          C68   1.363       .  D
C68         C193   1.498       .  S
C73          C74   1.543       .  S
C73          C79   1.556       .  S
C73          C77   1.563       .  S
C73         C158   1.558       .  S
C74          H81   1.086       .  S
C74          C75   1.355       .  D
C75          C76   1.529       .  S
C75         C142   1.500       .  S
C76          C80   1.522       .  S
C76          C78   1.550       .  S
C76          H82   1.073       .  S
C77          H83   1.076       .  S
C77          C78   1.390       .  D
C78         C225   1.538       .  S
C79          H84   1.085       .  S
C79          C80   1.358       .  D
C80         C190   1.489       .  S
C85          C86   1.545       .  S
C85          C91   1.563       .  S
C85          C89   1.548       .  S
C85         C129   1.543       .  S
C86          H93   1.086       .  S
C86          C87   1.364       .  D
C87          C88   1.546       .  S
C87         C145   1.497       .  S
C88          C92   1.540       .  S
C88          C90   1.542       .  S
C88          H94   1.091       .  S
C89          H95   1.086       .  S
C89          C90   1.361       .  D
C90         C177   1.496       .  S
C91          H96   1.082       .  S
C91          C92   1.362       .  D
C92         C241   1.507       .  S
O97         V105   1.895   1_546  S
O97         C107   1.264       .  A
O98         V549   1.891       .  S
O98         C108   1.261       .  A
O99         V105   1.899   1_545  S
O99         C109   1.264       .  A
O100        V549   1.905   1_556  S
O100        C110   1.266       .  A
O101        V550   1.893   1_556  S
O101        C110   1.261       .  A
O102        V106   1.896   1_545  S
O102        C109   1.263       .  A
O103        V550   1.904       .  S
O103        C108   1.267       .  A
O104        V106   1.903   1_546  S
O104        C107   1.264       .  A
V105        O542   1.900       .  S
V105        O544   1.896   1_554  S
V105        V106   2.085       .  T
V106        O545   1.893   1_554  S
V106        O547   1.901       .  S
C107        C318   1.482       .  S
C108        C206   1.488       .  S
C109        C126   1.477       .  S
C110        C433   1.478       .  S
O111       V1007   1.893       .  S
O111        C121   1.261       .  A
O112        V119   1.904       .  S
O112        C122   1.265       .  A
O113       V1007   1.903       .  S
O113        C123   1.266       .  A
O114        V119   1.907       .  S
O114        C124   1.267       .  A
O115        V120   1.899       .  S
O115        C124   1.263       .  A
O116       V1008   1.906   1_455  S
O116        C123   1.265       .  A
O117        V120   1.908       .  S
O117        C122   1.266       .  A
O118       V1008   1.907   1_455  S
O118        C121   1.268       .  A
V119        O999   1.895       .  S
V119       O1001   1.908       .  S
V119        V120   2.083       .  T
V120       O1004   1.902       .  S
V120       O1006   1.901       .  S
C121        C289   1.494       .  S
C122        C273   1.488       .  S
C123        C161   1.493       .  S
C124        C369   1.487       .  S
C125        C126   1.397       .  A
C125        C130   1.407       .  A
C125        H132   1.085       .  S
C126        C127   1.411       .  A
C127        C134   1.521       .  S
C127        C128   1.405       .  A
C128        C129   1.415       .  A
C128        H133   1.074       .  S
C129        C130   1.436       .  A
C130        C131   1.527       .  S
C131        F135   1.383       .  S
C131        F136   1.375       .  S
C131        F137   1.385       .  S
C134        F138   1.383       .  S
C134        F139   1.383       .  S
C134        F140   1.385       .  S
C141        C142   1.408       .  A
C141        C146   1.415       .  A
C141        H148   1.084       .  S
C142        C143   1.416       .  A
C143        C150   1.509       .  S
C143        C144   1.405       .  A
C144        C145   1.400       .  A
C144        H149   1.079       .  S
C145        C146   1.419       .  A
C146        C147   1.514       .  S
C147        F151   1.382       .  S
C147        F152   1.381       .  S
C147        F153   1.383       .  S
C150        F154   1.380       .  S
C150        F155   1.382       .  S
C150        F156   1.383       .  S
C157        C158   1.422       .  A
C157        C162   1.410       .  A
C157        H164   1.074       .  S
C158        C159   1.435       .  A
C159        C166   1.527       .  S
C159        C160   1.413       .  A
C160        C161   1.402       .  A
C160        H165   1.083       .  S
C161        C162   1.413       .  A
C162        C163   1.523       .  S
C163        F167   1.385       .  S
C163        F168   1.383       .  S
C163        F169   1.384       .  S
C166        F170   1.381       .  S
C166        F171   1.379       .  S
C166        F172   1.385       .  S
C173        C174   1.392       .  A
C173        C178   1.392       .  A
C173        H180   1.076       .  S
C174        C175   1.421       .  A
C175        C182   1.515       .  S
C175        C176   1.421       .  A
C176        C177   1.409       .  A
C176        H181   1.080       .  S
C177        C178   1.409       .  A
C178        C179   1.501       .  S
C179        F183   1.384       .  S
C179        F184   1.379       .  S
C179        F185   1.377       .  S
C182        F186   1.381       .  S
C182        F187   1.379       .  S
C182        F188   1.384       .  S
C189        C190   1.403       .  A
C189        C194   1.405       .  A
C189        H196   1.083       .  S
C190        C191   1.412       .  A
C191        C198   1.513       .  S
C191        C192   1.409       .  A
C192        C193   1.407       .  A
C192        H197   1.083       .  S
C193        C194   1.415       .  A
C194        C195   1.506       .  S
C195        F199   1.381       .  S
C195        F200   1.384       .  S
C195        F201   1.382       .  S
C198        F202   1.383       .  S
C198        F203   1.383       .  S
C198        F204   1.382       .  S
C205        C206   1.402       .  A
C205        C210   1.404       .  A
C205        H212   1.084       .  S
C206        C207   1.420       .  A
C207        C214   1.522       .  S
C207        C208   1.406       .  A
C208        C209   1.410       .  A
C208        H213   1.078       .  S
C209        C210   1.429       .  A
C210        C211   1.520       .  S
C211        F215   1.375       .  S
C211        F216   1.383       .  S
C211        F217   1.385       .  S
C214        F218   1.383       .  S
C214        F219   1.384       .  S
C214        F220   1.385       .  S
C221        C222   1.392       .  A
C221        C226   1.388       .  A
C221        H228   1.069       .  S
C222        C223   1.431       .  A
C223        C230   1.517       .  S
C223        C224   1.432       .  A
C224        C225   1.422       .  A
C224        H229   1.078       .  S
C225        C226   1.426       .  A
C226        C227   1.512       .  S
C227        F231   1.383       .  S
C227        F232   1.377       .  S
C227        F233   1.368       .  S
C230        F234   1.379       .  S
C230        F235   1.382       .  S
C230        F236   1.385       .  S
C237        C238   1.400       .  A
C237        C242   1.407       .  A
C237        H244   1.083       .  S
C238        C239   1.411       .  A
C239        C246   1.515       .  S
C239        C240   1.417       .  A
C240        C241   1.409       .  A
C240        H245   1.080       .  S
C241        C242   1.416       .  A
C242        C243   1.508       .  S
C243        F247   1.385       .  S
C243        F248   1.383       .  S
C243        F249   1.378       .  S
C246        F250   1.383       .  S
C246        F251   1.381       .  S
C246        F252   1.384       .  S
C253        C254   1.406       .  A
C253        C258   1.411       .  A
C253        H260   1.081       .  S
C254        C255   1.418       .  A
C255        C262   1.514       .  S
C255        C256   1.406       .  A
C256        C257   1.395       .  A
C256        H261   1.077       .  S
C257        C258   1.412       .  A
C258        C259   1.517       .  S
C259        F263   1.384       .  S
C259        F264   1.383       .  S
C259        F265   1.377       .  S
C262        F266   1.382       .  S
C262        F267   1.375       .  S
C262        F268   1.384       .  S
C269        C270   1.415       .  A
C269        C274   1.410       .  A
C269        H276   1.077       .  S
C270        C271   1.441       .  A
C271        C278   1.529       .  S
C271        C272   1.412       .  A
C272        C273   1.397       .  A
C272        H277   1.084       .  S
C273        C274   1.414       .  A
C274        C275   1.520       .  S
C275        F279   1.384       .  S
C275        F280   1.382       .  S
C275        F281   1.383       .  S
C278        F282   1.385       .  S
C278        F283   1.380       .  S
C278        F284   1.381       .  S
C285        C286   1.413       .  A
C285        C290   1.405       .  A
C285        H292   1.077       .  S
C286        C287   1.432       .  A
C287        C294   1.525       .  S
C287        C288   1.410       .  A
C288        C289   1.403       .  A
C288        H293   1.084       .  S
C289        C290   1.420       .  A
C290        C291   1.524       .  S
C291        F295   1.383       .  S
C291        F296   1.384       .  S
C291        F297   1.385       .  S
C294        F298   1.382       .  S
C294        F299   1.385       .  S
C294        F300   1.378       .  S
C301        C302   1.403       .  A
C301        C306   1.417       .  A
C301        H308   1.084       .  S
C302        C303   1.406       .  A
C303        C310   1.497       .  S
C303        C304   1.389       .  A
C304        C305   1.393       .  A
C304        H309   1.075       .  S
C305        C306   1.432       .  A
C306        C307   1.517       .  S
C307        F311   1.383       .  S
C307        F312   1.376       .  S
C307        F313   1.383       .  S
C310        F314   1.378       .  S
C310        F315   1.376       .  S
C310        F316   1.384       .  S
C317        C318   1.395       .  A
C317        C322   1.405       .  A
C317        H324   1.086       .  S
C318        C319   1.412       .  A
C319        C326   1.522       .  S
C319        C320   1.409       .  A
C320        C321   1.418       .  A
C320        H325   1.071       .  S
C321        C322   1.439       .  A
C322        C323   1.526       .  S
C323        F327   1.383       .  S
C323        F328   1.385       .  S
C323        F329   1.371       .  S
C326        F330   1.384       .  S
C326        F331   1.382       .  S
C326        F332   1.385       .  S
C333        C334   1.404       .  A
C333        C338   1.416       .  A
C333        H340   1.083       .  S
C334        C335   1.416       .  A
C335        C342   1.499       .  S
C335        C336   1.396       .  A
C336        C337   1.391       .  A
C336        H341   1.083       .  S
C337        C338   1.420       .  A
C338        C339   1.516       .  S
C339        F343   1.385       .  S
C339        F344   1.383       .  S
C339        F345   1.381       .  S
C342        F346   1.384       .  S
C342        F347   1.377       .  S
C342        F348   1.381       .  S
C349        C350   1.402       .  A
C349        C354   1.413       .  A
C349        H356   1.082       .  S
C350        C351   1.416       .  A
C351        C358   1.511       .  S
C351        C352   1.412       .  A
C352        C353   1.402       .  A
C352        H357   1.079       .  S
C353        C354   1.420       .  A
C354        C355   1.514       .  S
C355        F359   1.384       .  S
C355        F360   1.374       .  S
C355        F361   1.383       .  S
C358        F362   1.375       .  S
C358        F363   1.383       .  S
C358        F364   1.384       .  S
C365        C366   1.413       .  A
C365        C370   1.410       .  A
C365        H372   1.077       .  S
C366        C367   1.435       .  A
C367        C374   1.526       .  S
C367        C368   1.406       .  A
C368        C369   1.398       .  A
C368        H373   1.085       .  S
C369        C370   1.417       .  A
C370        C371   1.520       .  S
C371        F375   1.385       .  S
C371        F376   1.382       .  S
C371        F377   1.384       .  S
C374        F378   1.384       .  S
C374        F379   1.376       .  S
C374        F380   1.384       .  S
C381        C382   1.399       .  A
C381        C386   1.412       .  A
C381        H388   1.084       .  S
C382        C383   1.414       .  A
C383        C390   1.513       .  S
C383        C384   1.400       .  A
C384        C385   1.398       .  A
C384        H389   1.079       .  S
C385        C386   1.431       .  A
C386        C387   1.515       .  S
C387        F391   1.383       .  S
C387        F392   1.374       .  S
C387        F393   1.384       .  S
C390        F394   1.381       .  S
C390        F395   1.381       .  S
C390        F396   1.384       .  S
C397        C398   1.405       .  A
C397        C402   1.411       .  A
C397        H404   1.083       .  S
C398        C399   1.411       .  A
C399        C406   1.514       .  S
C399        C400   1.414       .  A
C400        C401   1.407       .  A
C400        H405   1.083       .  S
C401        C402   1.416       .  A
C402        C403   1.509       .  S
C403        F407   1.385       .  S
C403        F408   1.383       .  S
C403        F409   1.374       .  S
C406        F410   1.383       .  S
C406        F411   1.382       .  S
C406        F412   1.384       .  S
C413        C414   1.400       .  A
C413        C418   1.392       .  A
C413        H420   1.082       .  S
C414        C415   1.421       .  A
C415        C422   1.518       .  S
C415        C416   1.420       .  A
C416        C417   1.419       .  A
C416        H421   1.079       .  S
C417        C418   1.426       .  A
C418        C419   1.524       .  S
C419        F423   1.373       .  S
C419        F424   1.380       .  S
C419        F425   1.381       .  S
C422        F426   1.383       .  S
C422        F427   1.381       .  S
C422        F428   1.384       .  S
C429        C430   1.408       .  A
C429        C434   1.403       .  A
C429        H436   1.082       .  S
C430        C431   1.421       .  A
C431        C438   1.517       .  S
C431        C432   1.407       .  A
C432        C433   1.403       .  A
C432        H437   1.085       .  S
C433        C434   1.418       .  A
C434        C435   1.520       .  S
C435        F439   1.385       .  S
C435        F440   1.381   1_556  S
C435        F441   1.383       .  S
C438        F442   1.383       .  S
C438        F443   1.382       .  S
C438        F444   1.385       .  S
C445        C446   1.547       .  S
C445        C451   1.548       .  S
C445        C449   1.549       .  S
C445        C874   1.535       .  S
C446        H453   1.077       .  S
C446        C447   1.360       .  D
C447        C448   1.537       .  S
C447        C842   1.488       .  S
C448        C452   1.538       .  S
C448        C450   1.527       .  S
C448        H454   1.081       .  S
C449        H455   1.086       .  S
C449        C450   1.352       .  D
C450        C826   1.485       .  S
C451        H456   1.085       .  S
C451        C452   1.378       .  D
C452        C861   1.514       .  S
C457        C458   1.553       .  S
C457        C463   1.569       .  S
C457        C461   1.550       .  S
C457        C810   1.543       .  S
C458        H465   1.086       .  S
C458        C459   1.362       .  D
C459        C460   1.516       .  S
C459        C794   1.491       .  S
C460        C464   1.536       .  S
C460        C462   1.526       .  S
C460        H466   1.097       .  S
C461        H467   1.084       .  S
C461        C462   1.358       .  D
C462        C781   1.486       .  S
C463        H468   1.079       .  S
C463        C464   1.373       .  D
C464        C858   1.502       .  S
C469        C470   1.557       .  S
C469        C475   1.548       .  S
C469        C473   1.548       .  S
C469        C765   1.544       .  S
C470        H477   1.079       .  S
C470        C471   1.359       .  D
C471        C472   1.545       .  S
C471        C797   1.497       .  S
C472        C476   1.543       .  S
C472        C474   1.550       .  S
C472        H478   1.105       .  S
C473        H479   1.085       .  S
C473        C474   1.363       .  D
C474        C829   1.503       .  S
C475        H480   1.086       .  S
C475        C476   1.364       .  D
C476        C746   1.499       .  S
C481        C482   1.540       .  S
C481        C487   1.565       .  S
C481        C485   1.549       .  S
C481        C730   1.545       .  S
C482        H489   1.086       .  S
C482        C483   1.359       .  D
C483        C484   1.551       .  S
C483        C845   1.494       .  S
C484        C488   1.541       .  S
C484        C486   1.537       .  S
C484        H490   1.097       .  S
C485        H491   1.086       .  S
C485        C486   1.363       .  D
C486        C778   1.497       .  S
C487        H492   1.080       .  S
C487        C488   1.365       .  D
C488        C749   1.502       .  S
C493        C494   1.541       .  S
C493        C499   1.543       .  S
C493        C497   1.569       .  S
C493        C714   1.547       .  S
C494        H501   1.086       .  S
C494        C495   1.354       .  D
C495        C496   1.526       .  S
C495        C698   1.491       .  S
C496        C500   1.540       .  S
C496        C498   1.558       .  S
C496        H502   1.107       .  S
C497        H503   1.075       .  S
C497        C498   1.379       .  D
C498        C666   1.526       .  S
C499        H504   1.083       .  S
C499        C500   1.360       .  D
C500        C682   1.491       .  S
C505        C506   1.546       .  S
C505        C511   1.554       .  S
C505        C509   1.544       .  S
C505        C653   1.547       .  S
C506        H513   1.082       .  S
C506        C507   1.361       .  D
C507        C508   1.545       .  S
C507        C701   1.488       .  S
C508        C512   1.545       .  S
C508        C510   1.540       .  S
C508        H514   1.107       .  S
C509        H515   1.084       .  S
C509        C510   1.367       .  D
C510        C618   1.495       .  S
C511        H516   1.084       .  S
C511        C512   1.363       .  D
C512        C637   1.500       .  S
C517        C518   1.541       .  S
C517        C523   1.555       .  S
C517        C521   1.562       .  S
C517        C602   1.559       .  S
C518        H525   1.086       .  S
C518        C519   1.356       .  D
C519        C520   1.530       .  S
C519        C586   1.497       .  S
C520        C524   1.523       .  S
C520        C522   1.549       .  S
C520        H526   1.076       .  S
C521        H527   1.074       .  S
C521        C522   1.390       .  D
C522        C669   1.535       .  S
C523        H528   1.086       .  S
C523        C524   1.359       .  D
C524        C634   1.489       .  S
C529        C530   1.542       .  S
C529        C535   1.564       .  S
C529        C533   1.549       .  S
C529        C573   1.544       .  S
C530        H537   1.086       .  S
C530        C531   1.360       .  D
C531        C532   1.547       .  S
C531        C589   1.497       .  S
C532        C536   1.541       .  S
C532        C534   1.541       .  S
C532        H538   1.096       .  S
C533        H539   1.085       .  S
C533        C534   1.362       .  D
C534        C621   1.494       .  S
C535        H540   1.082       .  S
C535        C536   1.366       .  D
C536        C685   1.505       .  S
O541        V549   1.885   1_556  S
O541        C551   1.261       .  A
O542        C552   1.263       .  A
O543        V549   1.906       .  S
O543        C553   1.266       .  A
O544        C554   1.264       .  A
O545        C554   1.261       .  A
O546        V550   1.894       .  S
O546        C553   1.262       .  A
O547        C552   1.267       .  A
O548        V550   1.904   1_556  S
O548        C551   1.265       .  A
V549        V550   2.086       .  T
C551        C762   1.476       .  S
C552        C650   1.494       .  S
C553        C570   1.479       .  S
C554        C877   1.476       .  S
O555       V1451   1.892       .  S
O555        C565   1.262       .  A
O556        V563   1.897       .  S
O556        C566   1.263       .  A
O557       V1451   1.905       .  S
O557        C567   1.266       .  A
O558        V563   1.905       .  S
O558        C568   1.267       .  A
O559        V564   1.901       .  S
O559        C568   1.263       .  A
O560       V1452   1.908       .  S
O560        C567   1.266       .  A
O561        V564   1.909       .  S
O561        C566   1.266       .  A
O562       V1452   1.902       .  S
O562        C565   1.265       .  A
V563       O1443   1.884       .  S
V563       O1445   1.908       .  S
V563        V564   2.083       .  T
V564       O1448   1.902       .  S
V564       O1450   1.906       .  S
C565        C733   1.480       .  S
C566        C717   1.480       .  S
C567        C605   1.492       .  S
C568        C813   1.490       .  S
C569        C570   1.396       .  A
C569        C574   1.407       .  A
C569        H576   1.085       .  S
C570        C571   1.412       .  A
C571        C578   1.521       .  S
C571        C572   1.407       .  A
C572        C573   1.415       .  A
C572        H577   1.075       .  S
C573        C574   1.438       .  A
C574        C575   1.527       .  S
C575        F579   1.383       .  S
C575        F580   1.376       .  S
C575        F581   1.385       .  S
C578        F582   1.383       .  S
C578        F583   1.384       .  S
C578        F584   1.385       .  S
C585        C586   1.407       .  A
C585        C590   1.413       .  A
C585        H592   1.084       .  S
C586        C587   1.415       .  A
C587        C594   1.509       .  S
C587        C588   1.406       .  A
C588        C589   1.401       .  A
C588        H593   1.079       .  S
C589        C590   1.421       .  A
C590        C591   1.515       .  S
C591        F595   1.383       .  S
C591        F596   1.380       .  S
C591        F597   1.383       .  S
C594        F598   1.380       .  S
C594        F599   1.383       .  S
C594        F600   1.384       .  S
C601        C602   1.421       .  A
C601        C606   1.409       .  A
C601        H608   1.077       .  S
C602        C603   1.436       .  A
C603        C610   1.525       .  S
C603        C604   1.416       .  A
C604        C605   1.402       .  A
C604        H609   1.083       .  S
C605        C606   1.411       .  A
C606        C607   1.522       .  S
C607        F611   1.385       .  S
C607        F612   1.382       .  S
C607        F613   1.384       .  S
C610        F614   1.381       .  S
C610        F615   1.380       .  S
C610        F616   1.385       .  S
C617        C618   1.396       .  A
C617        C622   1.396       .  A
C617        H624   1.076       .  S
C618        C619   1.422       .  A
C619        C626   1.515       .  S
C619        C620   1.419       .  A
C620        C621   1.406       .  A
C620        H625   1.080       .  S
C621        C622   1.409       .  A
C622        C623   1.504       .  S
C623        F627   1.384       .  S
C623        F628   1.380       .  S
C623        F629   1.376       .  S
C626        F630   1.381       .  S
C626        F631   1.379       .  S
C626        F632   1.384       .  S
C633        C634   1.404       .  A
C633        C638   1.406       .  A
C633        H640   1.084       .  S
C634        C635   1.411       .  A
C635        C642   1.512       .  S
C635        C636   1.408       .  A
C636        C637   1.408       .  A
C636        H641   1.083       .  S
C637        C638   1.416       .  A
C638        C639   1.507       .  S
C639        F643   1.382       .  S
C639        F644   1.385       .  S
C639        F645   1.381       .  S
C642        F646   1.383       .  S
C642        F647   1.383       .  S
C642        F648   1.381       .  S
C649        C650   1.404       .  A
C649        C654   1.406       .  A
C649        H656   1.084       .  S
C650        C651   1.421       .  A
C651        C658   1.521       .  S
C651        C652   1.408       .  A
C652        C653   1.411       .  A
C652        H657   1.079       .  S
C653        C654   1.429       .  A
C654        C655   1.520       .  S
C655        F659   1.385       .  S
C655        F660   1.376       .  S
C655        F661   1.383       .  S
C658        F662   1.383       .  S
C658        F663   1.383       .  S
C658        F664   1.385       .  S
C665        C666   1.393       .  A
C665        C670   1.388       .  A
C665        H672   1.072       .  S
C666        C667   1.431       .  A
C667        C674   1.519       .  S
C667        C668   1.429       .  A
C668        C669   1.421       .  A
C668        H673   1.078       .  S
C669        C670   1.426       .  A
C670        C671   1.513       .  S
C671        F675   1.383       .  S
C671        F676   1.377       .  S
C671        F677   1.367       .  S
C674        F678   1.378       .  S
C674        F679   1.382       .  S
C674        F680   1.385       .  S
C681        C682   1.398       .  A
C681        C686   1.406       .  A
C681        H688   1.084       .  S
C682        C683   1.411       .  A
C683        C690   1.515       .  S
C683        C684   1.418       .  A
C684        C685   1.408       .  A
C684        H689   1.080       .  S
C685        C686   1.415       .  A
C686        C687   1.505       .  S
C687        F691   1.385       .  S
C687        F692   1.383       .  S
C687        F693   1.377       .  S
C690        F694   1.383       .  S
C690        F695   1.382       .  S
C690        F696   1.384       .  S
C697        C698   1.405       .  A
C697        C702   1.410       .  A
C697        H704   1.081       .  S
C698        C699   1.419       .  A
C699        C706   1.513       .  S
C699        C700   1.406       .  A
C700        C701   1.395       .  A
C700        H705   1.077       .  S
C701        C702   1.412       .  A
C702        C703   1.517       .  S
C703        F707   1.384       .  S
C703        F708   1.383       .  S
C703        F709   1.377       .  S
C706        F710   1.382       .  S
C706        F711   1.374       .  S
C706        F712   1.385       .  S
C713        C714   1.415       .  A
C713        C718   1.409       .  A
C713        H720   1.076       .  S
C714        C715   1.441       .  A
C715        C722   1.530       .  S
C715        C716   1.409       .  A
C716        C717   1.395       .  A
C716        H721   1.084       .  S
C717        C718   1.411       .  A
C718        C719   1.519       .  S
C719        F723   1.385       .  S
C719        F724   1.382       .  S
C719        F725   1.382       .  S
C722        F726   1.385       .  S
C722        F727   1.379       .  S
C722        F728   1.381       .  S
C729        C730   1.415       .  A
C729        C734   1.404       .  A
C729        H736   1.071       .  S
C730        C731   1.439       .  A
C731        C738   1.529       .  S
C731        C732   1.408       .  A
C732        C733   1.397       .  A
C732        H737   1.085       .  S
C733        C734   1.411       .  A
C734        C735   1.522       .  S
C735        F739   1.382       .  S
C735        F740   1.384       .  S
C735        F741   1.385       .  S
C738        F742   1.385       .  S
C738        F743   1.374       .  S
C738        F744   1.383       .  S
C745        C746   1.403       .  A
C745        C750   1.418       .  A
C745        H752   1.084       .  S
C746        C747   1.405       .  A
C747        C754   1.499       .  S
C747        C748   1.393       .  A
C748        C749   1.397       .  A
C748        H753   1.074       .  S
C749        C750   1.434       .  A
C750        C751   1.518       .  S
C751        F755   1.383       .  S
C751        F756   1.375       .  S
C751        F757   1.383       .  S
C754        F758   1.377       .  S
C754        F759   1.377       .  S
C754        F760   1.383       .  S
C761        C762   1.396       .  A
C761        C766   1.403       .  A
C761        H768   1.086       .  S
C762        C763   1.409       .  A
C763        C770   1.521       .  S
C763        C764   1.406       .  A
C764        C765   1.418       .  A
C764        H769   1.070       .  S
C765        C766   1.437       .  A
C766        C767   1.527       .  S
C767        F771   1.384       .  S
C767        F772   1.384       .  S
C767        F773   1.372       .  S
C770        F774   1.384       .  S
C770        F775   1.383       .  S
C770        F776   1.385       .  S
C777        C778   1.404       .  A
C777        C782   1.417       .  A
C777        H784   1.083       .  S
C778        C779   1.414       .  A
C779        C786   1.500       .  S
C779        C780   1.398       .  A
C780        C781   1.393       .  A
C780        H785   1.082       .  S
C781        C782   1.420       .  A
C782        C783   1.516       .  S
C783        F787   1.384       .  S
C783        F788   1.382       .  S
C783        F789   1.381       .  S
C786        F790   1.384       .  S
C786        F791   1.378       .  S
C786        F792   1.379       .  S
C793        C794   1.401       .  A
C793        C798   1.410       .  A
C793        H800   1.081       .  S
C794        C795   1.416       .  A
C795        C802   1.511       .  S
C795        C796   1.410       .  A
C796        C797   1.401       .  A
C796        H801   1.075       .  S
C797        C798   1.417       .  A
C798        C799   1.513       .  S
C799        F803   1.384       .  S
C799        F804   1.374       .  S
C799        F805   1.382       .  S
C802        F806   1.376       .  S
C802        F807   1.383       .  S
C802        F808   1.385       .  S
C809        C810   1.412       .  A
C809        C814   1.411       .  A
C809        H816   1.077       .  S
C810        C811   1.435       .  A
C811        C818   1.526       .  S
C811        C812   1.405       .  A
C812        C813   1.399       .  A
C812        H817   1.085       .  S
C813        C814   1.418       .  A
C814        C815   1.520       .  S
C815        F819   1.385       .  S
C815        F820   1.382       .  S
C815        F821   1.384       .  S
C818        F822   1.385       .  S
C818        F823   1.383       .  S
C818        F824   1.376       .  S
C825        C826   1.400       .  A
C825        C830   1.413       .  A
C825        H832   1.084       .  S
C826        C827   1.413       .  A
C827        C834   1.513       .  S
C827        C828   1.399       .  A
C828        C829   1.398       .  A
C828        H833   1.073       .  S
C829        C830   1.430       .  A
C830        C831   1.515       .  S
C831        F835   1.384       .  S
C831        F836   1.373       .  S
C831        F837   1.383       .  S
C834        F838   1.381       .  S
C834        F839   1.381       .  S
C834        F840   1.383       .  S
C841        C842   1.406       .  A
C841        C846   1.410       .  A
C841        H848   1.083       .  S
C842        C843   1.409       .  A
C843        C850   1.513       .  S
C843        C844   1.411       .  A
C844        C845   1.406       .  A
C844        H849   1.083       .  S
C845        C846   1.415       .  A
C846        C847   1.510       .  S
C847        F851   1.385       .  S
C847        F852   1.383       .  S
C847        F853   1.376       .  S
C850        F854   1.383       .  S
C850        F855   1.382       .  S
C850        F856   1.384       .  S
C857        C858   1.398       .  A
C857        C862   1.393       .  A
C857        H864   1.081       .  S
C858        C859   1.418       .  A
C859        C866   1.517       .  S
C859        C860   1.419       .  A
C860        C861   1.419       .  A
C860        H865   1.080       .  S
C861        C862   1.426       .  A
C862        C863   1.524       .  S
C863        F867   1.369       .  S
C863        F868   1.380       .  S
C863        F869   1.380       .  S
C866        F870   1.382       .  S
C866        F871   1.381       .  S
C866        F872   1.384       .  S
C873        C874   1.409       .  A
C873        C878   1.404       .  A
C873        H880   1.083       .  S
C874        C875   1.421       .  A
C875        C882   1.517       .  S
C875        C876   1.403       .  A
C876        C877   1.402       .  A
C876        H881   1.085       .  S
C877        C878   1.418       .  A
C878        C879   1.520       .  S
C879        F883   1.385       .  S
C879        F884   1.383   1_556  S
C879        F885   1.383       .  S
C882        F886   1.384       .  S
C882        F887   1.383       .  S
C882        F888   1.385       .  S
C889        C890   1.550       .  S
C889        C895   1.547       .  S
C889        C893   1.549       .  S
C889       C1318   1.535       .  S
C890        H897   1.079       .  S
C890        C891   1.364       .  D
C891        C892   1.539       .  S
C891       C1286   1.495       .  S
C892        C896   1.539       .  S
C892        C894   1.525       .  S
C892        H898   1.079       .  S
C893        H899   1.086       .  S
C893        C894   1.346       .  D
C894       C1270   1.484       .  S
C895        H900   1.084       .  S
C895        C896   1.379       .  D
C896       C1305   1.512       .  S
C901        C902   1.553       .  S
C901        C907   1.566       .  S
C901        C905   1.553       .  S
C901       C1254   1.540       .  S
C902        H909   1.086       .  S
C902        C903   1.361       .  D
C903        C904   1.515       .  S
C903       C1238   1.493       .  S
C904        C908   1.539       .  S
C904        C906   1.525       .  S
C904        H910   1.098       .  S
C905        H911   1.085       .  S
C905        C906   1.359       .  D
C906       C1225   1.484       .  S
C907        H912   1.079       .  S
C907        C908   1.370       .  D
C908       C1302   1.502       .  S
C913        C914   1.559       .  S
C913        C919   1.552       .  S
C913        C917   1.549       .  S
C913       C1209   1.552       .  S
C914        H921   1.079       .  S
C914        C915   1.360       .  D
C915        C916   1.543       .  S
C915       C1241   1.499       .  S
C916        C920   1.541       .  S
C916        C918   1.549       .  S
C916        H922   1.107       .  S
C917        H923   1.085       .  S
C917        C918   1.364       .  D
C918       C1273   1.502       .  S
C919        H924   1.086       .  S
C919        C920   1.366       .  D
C920       C1190   1.499       .  S
C925        C926   1.547       .  S
C925        C931   1.559       .  S
C925        C929   1.547       .  S
C925       C1174   1.550       .  S
C926        H933   1.084       .  S
C926        C927   1.365       .  D
C927        C928   1.543       .  S
C927       C1289   1.498       .  S
C928        C932   1.542       .  S
C928        C930   1.534       .  S
C928        H934   1.095       .  S
C929        H935   1.085       .  S
C929        C930   1.361       .  D
C930       C1222   1.498       .  S
C931        H936   1.078       .  S
C931        C932   1.360       .  D
C932       C1193   1.495       .  S
C937        C938   1.541       .  S
C937        C943   1.548       .  S
C937        C941   1.570       .  S
C937       C1158   1.551       .  S
C938        H945   1.086       .  S
C938        C939   1.353       .  D
C939        C940   1.524       .  S
C939       C1142   1.492       .  S
C940        C944   1.541       .  S
C940        C942   1.557       .  S
C940        H946   1.106       .  S
C941        H947   1.075       .  S
C941        C942   1.379       .  D
C942       C1110   1.525       .  S
C943        H948   1.083       .  S
C943        C944   1.364       .  D
C944       C1126   1.501       .  S
C949        C950   1.544       .  S
C949        C955   1.559       .  S
C949        C953   1.544       .  S
C949       C1097   1.544       .  S
C950        H957   1.083       .  S
C950        C951   1.357       .  D
C951        C952   1.545       .  S
C951       C1145   1.487       .  S
C952        C956   1.543       .  S
C952        C954   1.538       .  S
C952        H958   1.105       .  S
C953        H959   1.084       .  S
C953        C954   1.366       .  D
C954       C1062   1.490       .  S
C955        H960   1.083       .  S
C955        C956   1.365       .  D
C956       C1081   1.505       .  S
C961        C962   1.539       .  S
C961        C967   1.561       .  S
C961        C965   1.559       .  S
C961       C1046   1.556       .  S
C962        H969   1.087       .  S
C962        C963   1.353       .  D
C963        C964   1.529       .  S
C963       C1030   1.497       .  S
C964        C968   1.522       .  S
C964        C966   1.549       .  S
C964        H970   1.072       .  S
C965        H971   1.073       .  S
C965        C966   1.386       .  D
C966       C1113   1.531       .  S
C967        H972   1.085       .  S
C967        C968   1.365       .  D
C968       C1078   1.495       .  S
C973        C974   1.544       .  S
C973        C979   1.565       .  S
C973        C977   1.548       .  S
C973       C1017   1.549       .  S
C974        H981   1.086       .  S
C974        C975   1.363       .  D
C975        C976   1.545       .  S
C975       C1033   1.497       .  S
C976        C980   1.544       .  S
C976        C978   1.543       .  S
C976        H982   1.099       .  S
C977        H983   1.086       .  S
C977        C978   1.363       .  D
C978       C1065   1.492       .  S
C979        H984   1.082       .  S
C979        C980   1.366       .  D
C980       C1129   1.513       .  S
O985        V993   1.895   1_556  S
O985        C995   1.263       .  A
O986       V1437   1.889       .  S
O986        C996   1.260       .  A
O987        V993   1.909       .  S
O987        C997   1.267       .  A
O988       V1437   1.906   1_556  S
O988        C998   1.266       .  A
O989       V1438   1.886   1_556  S
O989        C998   1.259       .  A
O990        V994   1.898       .  S
O990        C997   1.262       .  A
O991       V1438   1.906       .  S
O991        C996   1.268       .  A
O992        V994   1.906   1_556  S
O992        C995   1.266       .  A
V993       O1430   1.900   1_545  S
V993       O1432   1.909   1_544  S
V993        V994   2.084       .  T
V994       O1433   1.895   1_544  S
V994       O1435   1.905   1_545  S
C995       C1206   1.484       .  S
C996       C1094   1.490       .  S
C997       C1014   1.482       .  S
C998       C1321   1.475       .  S
O999       C1009   1.262       .  A
O1000      V1007   1.900   1_655  S
O1000      C1010   1.264       .  A
O1001      C1011   1.267       .  A
O1002      V1007   1.902   1_655  S
O1002      C1012   1.266       .  A
O1003      V1008   1.897       .  S
O1003      C1012   1.263       .  A
O1004      C1011   1.264       .  A
O1005      V1008   1.913       .  S
O1005      C1010   1.267       .  A
O1006      C1009   1.266       .  A
V1007      V1008   2.082   1_455  T
C1009      C1177   1.485       .  S
C1010      C1161   1.486       .  S
C1011      C1049   1.490       .  S
C1012      C1257   1.484       .  S
C1013      C1014   1.397       .  A
C1013      C1018   1.409       .  A
C1013      H1020   1.086       .  S
C1014      C1015   1.412       .  A
C1015      C1022   1.521       .  S
C1015      C1016   1.409       .  A
C1016      C1017   1.415       .  A
C1016      H1021   1.075       .  S
C1017      C1018   1.438       .  A
C1018      C1019   1.526       .  S
C1019      F1023   1.384       .  S
C1019      F1024   1.375       .  S
C1019      F1025   1.385       .  S
C1022      F1026   1.382       .  S
C1022      F1027   1.383       .  S
C1022      F1028   1.385       .  S
C1029      C1030   1.405       .  A
C1029      C1034   1.412       .  A
C1029      H1036   1.084       .  S
C1030      C1031   1.415       .  A
C1031      C1038   1.509       .  S
C1031      C1032   1.407       .  A
C1032      C1033   1.403       .  A
C1032      H1037   1.079       .  S
C1033      C1034   1.419       .  A
C1034      C1035   1.512       .  S
C1035      F1039   1.382       .  S
C1035      F1040   1.380       .  S
C1035      F1041   1.383       .  S
C1038      F1042   1.381       .  S
C1038      F1043   1.383       .  S
C1038      F1044   1.383       .  S
C1045      C1046   1.419       .  A
C1045      C1050   1.409       .  A
C1045      H1052   1.078       .  S
C1046      C1047   1.439       .  A
C1047      C1054   1.526       .  S
C1047      C1048   1.415       .  A
C1048      C1049   1.400       .  A
C1048      H1053   1.083       .  S
C1049      C1050   1.411       .  A
C1050      C1051   1.521       .  S
C1051      F1055   1.384       .  S
C1051      F1056   1.382       .  S
C1051      F1057   1.384       .  S
C1054      F1058   1.381       .  S
C1054      F1059   1.381       .  S
C1054      F1060   1.386       .  S
C1061      C1062   1.393       .  A
C1061      C1066   1.390       .  A
C1061      H1068   1.077       .  S
C1062      C1063   1.421       .  A
C1063      C1070   1.516       .  S
C1063      C1064   1.420       .  A
C1064      C1065   1.408       .  A
C1064      H1069   1.081       .  S
C1065      C1066   1.407       .  A
C1066      C1067   1.501       .  S
C1067      F1071   1.383       .  S
C1067      F1072   1.379       .  S
C1067      F1073   1.377       .  S
C1070      F1074   1.381       .  S
C1070      F1075   1.381       .  S
C1070      F1076   1.384       .  S
C1077      C1078   1.405       .  A
C1077      C1082   1.410       .  A
C1077      H1084   1.083       .  S
C1078      C1079   1.414       .  A
C1079      C1086   1.512       .  S
C1079      C1080   1.410       .  A
C1080      C1081   1.407       .  A
C1080      H1085   1.083       .  S
C1081      C1082   1.417       .  A
C1082      C1083   1.507       .  S
C1083      F1087   1.378       .  S
C1083      F1088   1.385       .  S
C1083      F1089   1.383       .  S
C1086      F1090   1.383       .  S
C1086      F1091   1.383       .  S
C1086      F1092   1.381       .  S
C1093      C1094   1.402       .  A
C1093      C1098   1.405       .  A
C1093      H1100   1.084       .  S
C1094      C1095   1.421       .  A
C1095      C1102   1.523       .  S
C1095      C1096   1.405       .  A
C1096      C1097   1.409       .  A
C1096      H1101   1.077       .  S
C1097      C1098   1.431       .  A
C1098      C1099   1.522       .  S
C1099      F1103   1.375       .  S
C1099      F1104   1.383       .  S
C1099      F1105   1.385       .  S
C1102      F1106   1.383       .  S
C1102      F1107   1.384       .  S
C1102      F1108   1.385       .  S
C1109      C1110   1.390       .  A
C1109      C1114   1.382       .  A
C1109      H1116   1.067       .  S
C1110      C1111   1.430       .  A
C1111      C1118   1.519       .  S
C1111      C1112   1.432       .  A
C1112      C1113   1.423       .  A
C1112      H1117   1.078       .  S
C1113      C1114   1.422       .  A
C1114      C1115   1.511       .  S
C1115      F1119   1.382       .  S
C1115      F1120   1.376       .  S
C1115      F1121   1.367       .  S
C1118      F1122   1.379       .  S
C1118      F1123   1.382       .  S
C1118      F1124   1.385       .  S
C1125      C1126   1.400       .  A
C1125      C1130   1.407       .  A
C1125      H1132   1.084       .  S
C1126      C1127   1.414       .  A
C1127      C1134   1.512       .  S
C1127      C1128   1.422       .  A
C1128      C1129   1.411       .  A
C1128      H1133   1.081       .  S
C1129      C1130   1.414       .  A
C1130      C1131   1.505       .  S
C1131      F1135   1.384       .  S
C1131      F1136   1.380       .  S
C1131      F1137   1.381       .  S
C1134      F1138   1.383       .  S
C1134      F1139   1.382       .  S
C1134      F1140   1.384       .  S
C1141      C1142   1.405       .  A
C1141      C1146   1.411       .  A
C1141      H1148   1.082       .  S
C1142      C1143   1.420       .  A
C1143      C1150   1.513       .  S
C1143      C1144   1.406       .  A
C1144      C1145   1.393       .  A
C1144      H1149   1.079       .  S
C1145      C1146   1.414       .  A
C1146      C1147   1.519       .  S
C1147      F1151   1.385       .  S
C1147      F1152   1.382       .  S
C1147      F1153   1.377       .  S
C1150      F1154   1.381       .  S
C1150      F1155   1.375       .  S
C1150      F1156   1.385       .  S
C1157      C1158   1.415       .  A
C1157      C1162   1.410       .  A
C1157      H1164   1.076       .  S
C1158      C1159   1.441       .  A
C1159      C1166   1.530       .  S
C1159      C1160   1.412       .  A
C1160      C1161   1.396       .  A
C1160      H1165   1.083       .  S
C1161      C1162   1.413       .  A
C1162      C1163   1.519       .  S
C1163      F1167   1.385       .  S
C1163      F1168   1.382       .  S
C1163      F1169   1.382       .  S
C1166      F1170   1.385       .  S
C1166      F1171   1.379       .  S
C1166      F1172   1.380       .  S
C1173      C1174   1.416       .  A
C1173      C1178   1.403       .  A
C1173      H1180   1.072       .  S
C1174      C1175   1.439       .  A
C1175      C1182   1.534       .  S
C1175      C1176   1.411       .  A
C1176      C1177   1.401       .  A
C1176      H1181   1.082       .  S
C1177      C1178   1.413       .  A
C1178      C1179   1.523       .  S
C1179      F1183   1.383       .  S
C1179      F1184   1.383       .  S
C1179      F1185   1.385       .  S
C1182      F1186   1.377       .  S
C1182      F1187   1.385       .  S
C1182      F1188   1.378       .  S
C1189      C1190   1.406       .  A
C1189      C1194   1.421       .  A
C1189      H1196   1.082       .  S
C1190      C1191   1.406       .  A
C1191      C1198   1.496       .  S
C1191      C1192   1.389       .  A
C1192      C1193   1.392       .  A
C1192      H1197   1.076       .  S
C1193      C1194   1.427       .  A
C1194      C1195   1.516       .  S
C1195      F1199   1.384       .  S
C1195      F1200   1.378       .  S
C1195      F1201   1.383       .  S
C1198      F1202   1.377       .  S
C1198      F1203   1.377       .  S
C1198      F1204   1.384       .  S
C1205      C1206   1.397       .  A
C1205      C1210   1.407       .  A
C1205      H1212   1.086       .  S
C1206      C1207   1.411       .  A
C1207      C1214   1.522       .  S
C1207      C1208   1.409       .  A
C1208      C1209   1.418       .  A
C1208      H1213   1.070       .  S
C1209      C1210   1.438       .  A
C1210      C1211   1.526       .  S
C1211      F1215   1.384       .  S
C1211      F1216   1.384       .  S
C1211      F1217   1.372       .  S
C1214      F1218   1.384       .  S
C1214      F1219   1.382       .  S
C1214      F1220   1.385       .  S
C1221      C1222   1.405       .  A
C1221      C1226   1.415       .  A
C1221      H1228   1.081       .  S
C1222      C1223   1.417       .  A
C1223      C1230   1.504       .  S
C1223      C1224   1.403       .  A
C1224      C1225   1.394       .  A
C1224      H1229   1.082       .  S
C1225      C1226   1.418       .  A
C1226      C1227   1.518       .  S
C1227      F1231   1.384       .  S
C1227      F1232   1.383       .  S
C1227      F1233   1.379       .  S
C1230      F1234   1.384       .  S
C1230      F1235   1.382       .  S
C1230      F1236   1.374       .  S
C1237      C1238   1.403       .  A
C1237      C1242   1.412       .  A
C1237      H1244   1.082       .  S
C1238      C1239   1.416       .  A
C1239      C1246   1.513       .  S
C1239      C1240   1.411       .  A
C1240      C1241   1.402       .  A
C1240      H1245   1.077       .  S
C1241      C1242   1.418       .  A
C1242      C1243   1.514       .  S
C1243      F1247   1.384       .  S
C1243      F1248   1.376       .  S
C1243      F1249   1.383       .  S
C1246      F1250   1.377       .  S
C1246      F1251   1.383       .  S
C1246      F1252   1.385       .  S
C1253      C1254   1.413       .  A
C1253      C1258   1.408       .  A
C1253      H1260   1.078       .  S
C1254      C1255   1.433       .  A
C1255      C1262   1.525       .  S
C1255      C1256   1.405       .  A
C1256      C1257   1.399       .  A
C1256      H1261   1.085       .  S
C1257      C1258   1.415       .  A
C1258      C1259   1.520       .  S
C1259      F1263   1.385       .  S
C1259      F1264   1.382       .  S
C1259      F1265   1.384       .  S
C1262      F1266   1.384       .  S
C1262      F1267   1.383       .  S
C1262      F1268   1.377       .  S
C1269      C1270   1.398       .  A
C1269      C1274   1.411       .  A
C1269      H1276   1.084       .  S
C1270      C1271   1.415       .  A
C1271      C1278   1.514       .  S
C1271      C1272   1.397       .  A
C1272      C1273   1.397       .  A
C1272      H1277   1.076       .  S
C1273      C1274   1.431       .  A
C1274      C1275   1.514       .  S
C1275      F1279   1.383       .  S
C1275      F1280   1.373       .  S
C1275      F1281   1.384       .  S
C1278      F1282   1.380       .  S
C1278      F1283   1.381       .  S
C1278      F1284   1.383       .  S
C1285      C1286   1.407       .  A
C1285      C1290   1.411       .  A
C1285      H1292   1.084       .  S
C1286      C1287   1.412       .  A
C1287      C1294   1.513       .  S
C1287      C1288   1.414       .  A
C1288      C1289   1.406       .  A
C1288      H1293   1.083       .  S
C1289      C1290   1.418       .  A
C1290      C1291   1.514       .  S
C1291      F1295   1.384       .  S
C1291      F1296   1.381       .  S
C1291      F1297   1.382       .  S
C1294      F1298   1.383       .  S
C1294      F1299   1.382       .  S
C1294      F1300   1.384       .  S
C1301      C1302   1.395       .  A
C1301      C1306   1.387       .  A
C1301      H1308   1.078       .  S
C1302      C1303   1.418       .  A
C1303      C1310   1.517       .  S
C1303      C1304   1.420       .  A
C1304      C1305   1.421       .  A
C1304      H1309   1.080       .  S
C1305      C1306   1.425       .  A
C1306      C1307   1.524       .  S
C1307      F1311   1.369       .  S
C1307      F1312   1.381       .  S
C1307      F1313   1.381       .  S
C1310      F1314   1.383       .  S
C1310      F1315   1.380       .  S
C1310      F1316   1.384       .  S
C1317      C1318   1.408       .  A
C1317      C1322   1.401       .  A
C1317      H1324   1.083       .  S
C1318      C1319   1.418       .  A
C1319      C1326   1.516       .  S
C1319      C1320   1.405       .  A
C1320      C1321   1.403       .  A
C1320      H1325   1.085       .  S
C1321      C1322   1.418       .  A
C1322      C1323   1.522       .  S
C1323      F1327   1.385       .  S
C1323      F1328   1.383   1_556  S
C1323      F1329   1.382       .  S
C1326      F1330   1.383       .  S
C1326      F1331   1.383       .  S
C1326      F1332   1.385       .  S
C1333      C1334   1.550       .  S
C1333      C1339   1.551       .  S
C1333      C1337   1.551       .  S
C1333      C1762   1.541       .  S
C1334      H1341   1.080       .  S
C1334      C1335   1.363       .  D
C1335      C1336   1.537       .  S
C1335      C1730   1.491       .  S
C1336      C1340   1.541       .  S
C1336      C1338   1.524       .  S
C1336      H1342   1.080       .  S
C1337      H1343   1.086       .  S
C1337      C1338   1.351       .  D
C1338      C1714   1.486       .  S
C1339      H1344   1.084       .  S
C1339      C1340   1.381       .  D
C1340      C1749   1.519       .  S
C1345      C1346   1.551       .  S
C1345      C1351   1.569       .  S
C1345      C1349   1.549       .  S
C1345      C1698   1.540       .  S
C1346      H1353   1.086       .  S
C1346      C1347   1.361       .  D
C1347      C1348   1.515       .  S
C1347      C1682   1.487       .  S
C1348      C1352   1.536       .  S
C1348      C1350   1.525       .  S
C1348      H1354   1.098       .  S
C1349      H1355   1.085       .  S
C1349      C1350   1.358       .  D
C1350      C1669   1.482       .  S
C1351      H1356   1.077       .  S
C1351      C1352   1.372       .  D
C1352      C1746   1.505       .  S
C1357      C1358   1.554       .  S
C1357      C1363   1.550       .  S
C1357      C1361   1.551       .  S
C1357      C1653   1.547       .  S
C1358      H1365   1.080       .  S
C1358      C1359   1.357       .  D
C1359      C1360   1.544       .  S
C1359      C1685   1.493       .  S
C1360      C1364   1.543       .  S
C1360      C1362   1.551       .  S
C1360      H1366   1.106       .  S
C1361      H1367   1.085       .  S
C1361      C1362   1.365       .  D
C1362      C1717   1.507       .  S
C1363      H1368   1.086       .  S
C1363      C1364   1.366       .  D
C1364      C1634   1.500       .  S
C1369      C1370   1.542       .  S
C1369      C1375   1.559       .  S
C1369      C1373   1.544       .  S
C1369      C1618   1.538       .  S
C1370      H1377   1.084       .  S
C1370      C1371   1.363       .  D
C1371      C1372   1.555       .  S
C1371      C1733   1.500       .  S
C1372      C1376   1.542       .  S
C1372      C1374   1.538       .  S
C1372      H1378   1.099       .  S
C1373      H1379   1.086       .  S
C1373      C1374   1.360       .  D
C1374      C1666   1.494       .  S
C1375      H1380   1.085       .  S
C1375      C1376   1.361       .  D
C1376      C1637   1.496       .  S
C1381      C1382   1.541       .  S
C1381      C1387   1.542       .  S
C1381      C1385   1.573       .  S
C1381      C1602   1.547       .  S
C1382      H1389   1.086       .  S
C1382      C1383   1.353       .  D
C1383      C1384   1.524       .  S
C1383      C1586   1.490       .  S
C1384      C1388   1.540       .  S
C1384      C1386   1.556       .  S
C1384      H1390   1.107       .  S
C1385      H1391   1.074       .  S
C1385      C1386   1.381       .  D
C1386      C1554   1.527       .  S
C1387      H1392   1.084       .  S
C1387      C1388   1.359       .  D
C1388      C1570   1.492       .  S
C1393      C1394   1.547       .  S
C1393      C1399   1.557       .  S
C1393      C1397   1.544       .  S
C1393      C1541   1.549       .  S
C1394      H1401   1.084       .  S
C1394      C1395   1.361       .  D
C1395      C1396   1.546       .  S
C1395      C1589   1.491       .  S
C1396      C1400   1.545       .  S
C1396      C1398   1.538       .  S
C1396      H1402   1.104       .  S
C1397      H1403   1.084       .  S
C1397      C1398   1.365       .  D
C1398      C1506   1.494       .  S
C1399      H1404   1.084       .  S
C1399      C1400   1.367       .  D
C1400      C1525   1.505       .  S
C1405      C1406   1.541       .  S
C1405      C1411   1.556       .  S
C1405      C1409   1.562       .  S
C1405      C1490   1.557       .  S
C1406      H1413   1.086       .  S
C1406      C1407   1.354       .  D
C1407      C1408   1.528       .  S
C1407      C1474   1.497       .  S
C1408      C1412   1.523       .  S
C1408      C1410   1.553       .  S
C1408      H1414   1.076       .  S
C1409      H1415   1.075       .  S
C1409      C1410   1.389       .  D
C1410      C1557   1.536       .  S
C1411      H1416   1.085       .  S
C1411      C1412   1.358       .  D
C1412      C1522   1.488       .  S
C1417      C1418   1.547       .  S
C1417      C1423   1.567       .  S
C1417      C1421   1.548       .  S
C1417      C1461   1.552       .  S
C1418      H1425   1.086       .  S
C1418      C1419   1.364       .  D
C1419      C1420   1.546       .  S
C1419      C1477   1.499       .  S
C1420      C1424   1.539       .  S
C1420      C1422   1.541       .  S
C1420      H1426   1.095       .  S
C1421      H1427   1.086       .  S
C1421      C1422   1.362       .  D
C1422      C1509   1.494       .  S
C1423      H1428   1.079       .  S
C1423      C1424   1.365       .  D
C1424      C1573   1.505       .  S
O1429      V1437   1.886   1_556  S
O1429      C1439   1.262       .  A
O1430      C1440   1.263       .  A
O1431      V1437   1.909       .  S
O1431      C1441   1.268       .  A
O1432      C1442   1.267       .  A
O1433      C1442   1.262       .  A
O1434      V1438   1.890       .  S
O1434      C1441   1.260       .  A
O1435      C1440   1.268       .  A
O1436      V1438   1.905   1_556  S
O1436      C1439   1.265       .  A
V1437      V1438   2.084       .  T
C1439      C1650   1.478       .  S
C1440      C1538   1.497       .  S
C1441      C1458   1.485       .  S
C1442      C1765   1.484       .  S
O1443      C1453   1.260       .  A
O1444      V1451   1.901   1_655  S
O1444      C1454   1.264       .  A
O1445      C1455   1.266       .  A
O1446      V1451   1.900   1_655  S
O1446      C1456   1.266       .  A
O1447      V1452   1.901   1_655  S
O1447      C1456   1.264       .  A
O1448      C1455   1.264       .  A
O1449      V1452   1.906   1_655  S
O1449      C1454   1.265       .  A
O1450      C1453   1.267       .  A
V1451      V1452   2.085       .  T
C1453      C1621   1.489       .  S
C1454      C1605   1.478       .  S
C1455      C1493   1.492       .  S
C1456      C1701   1.489       .  S
C1457      C1458   1.396       .  A
C1457      C1462   1.409       .  A
C1457      H1464   1.085       .  S
C1458      C1459   1.414       .  A
C1459      C1466   1.525       .  S
C1459      C1460   1.408       .  A
C1460      C1461   1.417       .  A
C1460      H1465   1.068       .  S
C1461      C1462   1.441       .  A
C1462      C1463   1.529       .  S
C1463      F1467   1.384       .  S
C1463      F1468   1.374       .  S
C1463      F1469   1.384       .  S
C1466      F1470   1.383       .  S
C1466      F1471   1.384       .  S
C1466      F1472   1.385       .  S
C1473      C1474   1.405       .  A
C1473      C1478   1.412       .  A
C1473      H1480   1.084       .  S
C1474      C1475   1.415       .  A
C1475      C1482   1.508       .  S
C1475      C1476   1.407       .  A
C1476      C1477   1.402       .  A
C1476      H1481   1.080       .  S
C1477      C1478   1.420       .  A
C1478      C1479   1.512       .  S
C1479      F1483   1.382       .  S
C1479      F1484   1.381       .  S
C1479      F1485   1.383       .  S
C1482      F1486   1.380       .  S
C1482      F1487   1.383       .  S
C1482      F1488   1.384       .  S
C1489      C1490   1.420       .  A
C1489      C1494   1.407       .  A
C1489      H1496   1.076       .  S
C1490      C1491   1.437       .  A
C1491      C1498   1.526       .  S
C1491      C1492   1.416       .  A
C1492      C1493   1.403       .  A
C1492      H1497   1.083       .  S
C1493      C1494   1.411       .  A
C1494      C1495   1.523       .  S
C1495      F1499   1.384       .  S
C1495      F1500   1.382       .  S
C1495      F1501   1.384       .  S
C1498      F1502   1.381       .  S
C1498      F1503   1.380       .  S
C1498      F1504   1.385       .  S
C1505      C1506   1.394       .  A
C1505      C1510   1.394       .  A
C1505      H1512   1.077       .  S
C1506      C1507   1.422       .  A
C1507      C1514   1.514       .  S
C1507      C1508   1.419       .  A
C1508      C1509   1.406       .  A
C1508      H1513   1.080       .  S
C1509      C1510   1.409       .  A
C1510      C1511   1.501       .  S
C1511      F1515   1.384       .  S
C1511      F1516   1.379       .  S
C1511      F1517   1.376       .  S
C1514      F1518   1.381       .  S
C1514      F1519   1.379       .  S
C1514      F1520   1.385       .  S
C1521      C1522   1.401       .  A
C1521      C1526   1.407       .  A
C1521      H1528   1.083       .  S
C1522      C1523   1.411       .  A
C1523      C1530   1.513       .  S
C1523      C1524   1.409       .  A
C1524      C1525   1.409       .  A
C1524      H1529   1.083       .  S
C1525      C1526   1.421       .  A
C1526      C1527   1.509       .  S
C1527      F1531   1.377       .  S
C1527      F1532   1.385       .  S
C1527      F1533   1.382       .  S
C1530      F1534   1.383       .  S
C1530      F1535   1.383       .  S
C1530      F1536   1.381       .  S
C1537      C1538   1.403       .  A
C1537      C1542   1.406       .  A
C1537      H1544   1.084       .  S
C1538      C1539   1.423       .  A
C1539      C1546   1.521       .  S
C1539      C1540   1.410       .  A
C1540      C1541   1.412       .  A
C1540      H1545   1.078       .  S
C1541      C1542   1.430       .  A
C1542      C1543   1.521       .  S
C1543      F1547   1.385       .  S
C1543      F1548   1.374       .  S
C1543      F1549   1.383       .  S
C1546      F1550   1.383       .  S
C1546      F1551   1.383       .  S
C1546      F1552   1.385       .  S
C1553      C1554   1.391       .  A
C1553      C1558   1.385       .  A
C1553      H1560   1.068       .  S
C1554      C1555   1.429       .  A
C1555      C1562   1.519       .  S
C1555      C1556   1.432       .  A
C1556      C1557   1.424       .  A
C1556      H1561   1.078       .  S
C1557      C1558   1.425       .  A
C1558      C1559   1.514       .  S
C1559      F1563   1.384       .  S
C1559      F1564   1.376       .  S
C1559      F1565   1.368       .  S
C1562      F1566   1.380       .  S
C1562      F1567   1.382       .  S
C1562      F1568   1.385       .  S
C1569      C1570   1.399       .  A
C1569      C1574   1.405       .  A
C1569      H1576   1.084       .  S
C1570      C1571   1.411       .  A
C1571      C1578   1.515       .  S
C1571      C1572   1.418       .  A
C1572      C1573   1.409       .  A
C1572      H1577   1.080       .  S
C1573      C1574   1.415       .  A
C1574      C1575   1.506       .  S
C1575      F1579   1.384       .  S
C1575      F1580   1.381       .  S
C1575      F1581   1.380       .  S
C1578      F1582   1.382       .  S
C1578      F1583   1.382       .  S
C1578      F1584   1.384       .  S
C1585      C1586   1.404       .  A
C1585      C1590   1.410       .  A
C1585      H1592   1.082       .  S
C1586      C1587   1.419       .  A
C1587      C1594   1.514       .  S
C1587      C1588   1.408       .  A
C1588      C1589   1.396       .  A
C1588      H1593   1.079       .  S
C1589      C1590   1.412       .  A
C1590      C1591   1.516       .  S
C1591      F1595   1.385       .  S
C1591      F1596   1.383       .  S
C1591      F1597   1.376       .  S
C1594      F1598   1.382       .  S
C1594      F1599   1.376       .  S
C1594      F1600   1.385       .  S
C1601      C1602   1.414       .  A
C1601      C1606   1.408       .  A
C1601      H1608   1.074       .  S
C1602      C1603   1.443       .  A
C1603      C1610   1.531       .  S
C1603      C1604   1.409       .  A
C1604      C1605   1.393       .  A
C1604      H1609   1.084       .  S
C1605      C1606   1.411       .  A
C1606      C1607   1.518       .  S
C1607      F1611   1.385       .  S
C1607      F1612   1.382       .  S
C1607      F1613   1.382       .  S
C1610      F1614   1.385       .  S
C1610      F1615   1.378       .  S
C1610      F1616   1.381       .  S
C1617      C1618   1.409       .  A
C1617      C1622   1.400       .  A
C1617      H1624   1.078       .  S
C1618      C1619   1.430       .  A
C1619      C1626   1.525       .  S
C1619      C1620   1.409       .  A
C1620      C1621   1.405       .  A
C1620      H1625   1.084       .  S
C1621      C1622   1.420       .  A
C1622      C1623   1.524       .  S
C1623      F1627   1.383       .  S
C1623      F1628   1.384       .  S
C1623      F1629   1.385       .  S
C1626      F1630   1.383       .  S
C1626      F1631   1.385       .  S
C1626      F1632   1.379       .  S
C1633      C1634   1.404       .  A
C1633      C1638   1.419       .  A
C1633      H1640   1.084       .  S
C1634      C1635   1.405       .  A
C1635      C1642   1.497       .  S
C1635      C1636   1.389       .  A
C1636      C1637   1.394       .  A
C1636      H1641   1.076       .  S
C1637      C1638   1.434       .  A
C1638      C1639   1.518       .  S
C1639      F1643   1.383       .  S
C1639      F1644   1.375       .  S
C1639      F1645   1.383       .  S
C1642      F1646   1.378       .  S
C1642      F1647   1.377       .  S
C1642      F1648   1.383       .  S
C1649      C1650   1.397       .  A
C1649      C1654   1.403       .  A
C1649      H1656   1.086       .  S
C1650      C1651   1.410       .  A
C1651      C1658   1.522       .  S
C1651      C1652   1.408       .  A
C1652      C1653   1.419       .  A
C1652      H1657   1.072       .  S
C1653      C1654   1.435       .  A
C1654      C1655   1.524       .  S
C1655      F1659   1.384       .  S
C1655      F1660   1.384       .  S
C1655      F1661   1.372       .  S
C1658      F1662   1.384       .  S
C1658      F1663   1.383       .  S
C1658      F1664   1.385       .  S
C1665      C1666   1.402       .  A
C1665      C1670   1.414       .  A
C1665      H1672   1.082       .  S
C1666      C1667   1.415       .  A
C1667      C1674   1.503       .  S
C1667      C1668   1.399       .  A
C1668      C1669   1.394       .  A
C1668      H1673   1.083       .  S
C1669      C1670   1.420       .  A
C1670      C1671   1.517       .  S
C1671      F1675   1.384       .  S
C1671      F1676   1.382       .  S
C1671      F1677   1.379       .  S
C1674      F1678   1.385       .  S
C1674      F1679   1.378       .  S
C1674      F1680   1.379       .  S
C1681      C1682   1.401       .  A
C1681      C1686   1.409       .  A
C1681      H1688   1.082       .  S
C1682      C1683   1.415       .  A
C1683      C1690   1.510       .  S
C1683      C1684   1.408       .  A
C1684      C1685   1.399       .  A
C1684      H1689   1.078       .  S
C1685      C1686   1.418       .  A
C1686      C1687   1.513       .  S
C1687      F1691   1.385       .  S
C1687      F1692   1.373       .  S
C1687      F1693   1.382       .  S
C1690      F1694   1.375       .  S
C1690      F1695   1.383       .  S
C1690      F1696   1.385       .  S
C1697      C1698   1.412       .  A
C1697      C1702   1.408       .  A
C1697      H1704   1.075       .  S
C1698      C1699   1.435       .  A
C1699      C1706   1.528       .  S
C1699      C1700   1.405       .  A
C1700      C1701   1.400       .  A
C1700      H1705   1.085       .  S
C1701      C1702   1.417       .  A
C1702      C1703   1.520       .  S
C1703      F1707   1.385       .  S
C1703      F1708   1.382       .  S
C1703      F1709   1.384       .  S
C1706      F1710   1.384       .  S
C1706      F1711   1.383       .  S
C1706      F1712   1.375       .  S
C1713      C1714   1.398       .  A
C1713      C1718   1.412       .  A
C1713      H1720   1.084       .  S
C1714      C1715   1.413       .  A
C1715      C1722   1.513       .  S
C1715      C1716   1.401       .  A
C1716      C1717   1.399       .  A
C1716      H1721   1.076       .  S
C1717      C1718   1.432       .  A
C1718      C1719   1.514       .  S
C1719      F1723   1.383       .  S
C1719      F1724   1.372       .  S
C1719      F1725   1.383       .  S
C1722      F1726   1.381       .  S
C1722      F1727   1.380       .  S
C1722      F1728   1.383       .  S
C1729      C1730   1.404       .  A
C1729      C1734   1.410       .  A
C1729      H1736   1.083       .  S
C1730      C1731   1.412       .  A
C1731      C1738   1.514       .  S
C1731      C1732   1.414       .  A
C1732      C1733   1.407       .  A
C1732      H1737   1.083       .  S
C1733      C1734   1.416       .  A
C1734      C1735   1.508       .  S
C1735      F1739   1.385       .  S
C1735      F1740   1.383       .  S
C1735      F1741   1.375       .  S
C1738      F1742   1.383       .  S
C1738      F1743   1.382       .  S
C1738      F1744   1.385       .  S
C1745      C1746   1.398       .  A
C1745      C1750   1.392       .  A
C1745      H1752   1.081       .  S
C1746      C1747   1.420       .  A
C1747      C1754   1.519       .  S
C1747      C1748   1.422       .  A
C1748      C1749   1.420       .  A
C1748      H1753   1.080       .  S
C1749      C1750   1.427       .  A
C1750      C1751   1.524       .  S
C1751      F1755   1.370       .  S
C1751      F1756   1.380       .  S
C1751      F1757   1.381       .  S
C1754      F1758   1.382       .  S
C1754      F1759   1.381       .  S
C1754      F1760   1.384       .  S
C1761      C1762   1.408       .  A
C1761      C1766   1.405       .  A
C1761      H1768   1.082       .  S
C1762      C1763   1.421       .  A
C1763      C1770   1.517       .  S
C1763      C1764   1.408       .  A
C1764      C1765   1.404       .  A
C1764      H1769   1.085       .  S
C1765      C1766   1.419       .  A
C1766      C1767   1.520       .  S
C1767      F1771   1.385       .  S
C1767      F1772   1.383   1_556  S
C1767      F1773   1.383       .  S
C1770      F1774   1.383       .  S
C1770      F1775   1.383       .  S
C1770      F1776   1.385       .  S
