geometry optimzed in LAMMPS
_audit_creation_date              2020-11-30 
_audit_creation_method            'lammps2cif' 
_symmetry_space_group_name_H-M    'P1' 
_symmetry_Int_Tables_number       1 
_symmetry_cell_setting            triclinic 
loop_ 
_symmetry_equiv_pos_as_xyz 
  x,y,z 
_cell_length_a                    33.75454627 
_cell_length_b                    33.78511341662015 
_cell_length_c                    34.14762431065906 
_cell_angle_alpha                 88.08377341286187 
_cell_angle_beta                  88.11087822982117 
_cell_angle_gamma                 87.77039831025918 
loop_ 
_atom_site_label 
_atom_site_type_symbol 
_atom_site_fract_x 
_atom_site_fract_y 
_atom_site_fract_z 
_atom_site_charge 
O1          O  0.02969264  0.90344882  0.99100733    -0.80800
O2          O  0.01891759  0.07896186  0.02519429    -0.65500
O3          O  0.99192892  0.97079550  0.02104334    -1.12100
C4          C  0.96901911  0.00716440  0.88806727     1.06100
O5          O  0.96170290  0.09496475  0.99845073    -0.78700
O6          O  0.91270912  0.04556817  0.96396874    -0.66300
Ni7        Ni  0.02590002  0.92923411  0.04051540     1.34900
C8          C  0.90106662  0.01095056  0.97250667     0.84800
O9          O  0.01613837  0.01871893  0.07995545    -0.79200
O10         O  0.02293994  0.95251657  0.09096913    -0.89500
C11         C  0.99274405  0.10509883  0.01515450     0.84400
O12         O  0.07682951  0.95119214  0.03017849    -0.67700
O13         O  0.96350666  0.04254189  0.89998610    -0.87000
C14         C  0.08853504  0.98535005  0.01981344     0.85200
C15         C  0.01976810  0.98801618  0.10283128     1.06800
H16         H  0.02245764  0.02871042  0.95534146     0.38600
O17         O  0.99748569  0.02620693  0.96970311    -1.09700
O18         O  0.92540477  0.98124145  0.97631685    -0.66300
Ni19       Ni  0.98255415  0.97287022  0.96627676     1.26300
O20         O  0.06430647  0.01463429  0.01331363    -0.66500
O21         O  0.97526294  0.97717519  0.91101926    -0.78800
C22         C  0.99928756  0.89263201  0.97368681     0.84600
O23         O  0.97205436  0.91801017  0.96515043    -0.66000
Ni24       Ni  0.96300476  0.06724863  0.94998565     1.27400
Ni25       Ni  0.00756834  0.02391308  0.02448993     1.26100
H26         H  0.96678529  0.96856003  0.03517076     0.39200
N27         N  0.99477529  0.96456378  0.53664950    -0.36500
N28         N  0.99689211  0.05039757  0.53750058    -0.57100
N29         N  0.99955114  0.05332628  0.45266119    -0.36500
N30         N  0.00088264  0.96734979  0.45214103    -0.57100
C31         C  0.00174250  0.97004089  0.57475935     0.27100
C32         C  0.00414440  0.92615514  0.52966873     0.27100
C33         C  0.00817374  0.09101934  0.46030371     0.27100
C34         C  0.01141485  0.04692335  0.41510436     0.27100
C35         C  0.98787402  0.04264878  0.57572770     0.35700
C36         C  0.99002963  0.08970865  0.53133447     0.35700
C37         C  0.99446927  0.92838031  0.45790515     0.35700
C38         C  0.99742542  0.97530202  0.41341399     0.35700
C39         C  0.01535077  0.93473686  0.59232607    -0.21800
C40         C  0.01702790  0.90700936  0.56377926    -0.21800
C41         C  0.02553535  0.10881814  0.42717746    -0.21800
C42         C  0.02749775  0.08098855  0.39859589    -0.21800
C43         C  0.97560344  0.07716234  0.59409173    -0.22900
C44         C  0.97675899  0.10701940  0.56586993    -0.22800
C45         C  0.98685970  0.91139658  0.42266920    -0.22900
C46         C  0.98886106  0.94117587  0.39437875    -0.22800
C47         C  0.99319308  0.00527039  0.59473821    -0.18200
C48         C  0.99922433  0.90742047  0.49394134    -0.18200
C49         C  0.00587032  0.01198428  0.39468543    -0.18200
C50         C  0.99845639  0.11042790  0.49561879    -0.18200
H51         H  0.02292779  0.92942251  0.62265372     0.14700
H52         H  0.02629789  0.87615300  0.56781544     0.14700
H53         H  0.03542398  0.13887021  0.42384135     0.14700
H54         H  0.03917294  0.08542843  0.36893894     0.14700
H55         H  0.96707335  0.08051485  0.62467252     0.13000
H56         H  0.96916330  0.13797207  0.57043099     0.13000
H57         H  0.98153460  0.88059996  0.41772592     0.13000
H58         H  0.98544666  0.93787343  0.36326406     0.13000
H59         H  0.97991738  0.98453983  0.51796419     0.26300
H60         H  0.98232521  0.03474727  0.47044697     0.26300
N61         N  0.45067680  0.00136533  0.04339005    -0.36500
N62         N  0.45102862  0.99637097  0.95824209    -0.57100
N63         N  0.53919671  0.99167972  0.95654925    -0.36500
N64         N  0.53884234  0.99654765  0.04169311    -0.57100
C65         C  0.41124234  0.99697029  0.03823008     0.27100
C66         C  0.45740813  0.99585164  0.08226431     0.27100
C67         C  0.53292188  0.99370316  0.91746266     0.27100
C68         C  0.57892447  0.99352756  0.96151398     0.27100
C69         C  0.41124671  0.00143747  0.96468798     0.35700
C70         C  0.45782254  0.99762616  0.91884667     0.35700
C71         C  0.53224130  0.99779721  0.08098885     0.35700
C72         C  0.57876240  0.99505739  0.03513825     0.35700
C73         C  0.39283715  0.98913666  0.07441747    -0.21800
C74         C  0.42166144  0.98875652  0.10200816    -0.21800
C75         C  0.56925517  0.99582291  0.89738491    -0.21800
C76         C  0.59803858  0.99588523  0.92497734    -0.21800
C77         C  0.39280179  0.00621719  0.92907155    -0.22900
C78         C  0.42204826  0.00338080  0.90023187    -0.22800
C79         C  0.56828309  0.99694619  0.09948018    -0.22900
C80         C  0.59756635  0.99514461  0.07060198    -0.22800
C81         C  0.39097417  0.00008025  0.00205026    -0.18200
C82         C  0.49452258  0.99752310  0.10098353    -0.18200
C83         C  0.59881903  0.99378670  0.99778410    -0.18200
C84         C  0.49559925  0.99500500  0.89888249    -0.18200
H85         H  0.36179118  0.98385964  0.08048738     0.14700
H86         H  0.41670931  0.98338151  0.13316355     0.14700
H87         H  0.57458788  0.99795070  0.86597222     0.14700
H88         H  0.62952611  0.99803871  0.91867802     0.14700
H89         H  0.36145807  0.01112195  0.92420470     0.13000
H90         H  0.41745585  0.00598611  0.86901811     0.13000
H91         H  0.57311183  0.99686510  0.13065859     0.13000
H92         H  0.62914248  0.99375069  0.07531967     0.13000
H93         H  0.47124857  0.01087927  0.02227545     0.26300
H94         H  0.51760195  0.98768970  0.97830890     0.26300
N95         N  0.95161135  0.53921353  0.99551137    -0.36500
N96         N  0.03686492  0.54603904  0.99583315    -0.57100
N97         N  0.04643298  0.46187926  0.01370597    -0.36500
N98         N  0.96115427  0.45486515  0.01096409    -0.57100
C99         C  0.95545780  0.57576961  0.97889532     0.27100
C100        C  0.91496851  0.52753312  0.98766143     0.27100
C101        C  0.08419719  0.47100932  0.00383746     0.27100
C102        C  0.04412678  0.42216740  0.01134136     0.27100
C103        C  0.02539821  0.58471308  0.99563184     0.35700
C104        C  0.07545576  0.54414856  0.00501024     0.35700
C105        C  0.92124597  0.45861623  0.01492467     0.35700
C106        C  0.97133933  0.41763450  0.02346859     0.35700
C107        C  0.92079769  0.58758472  0.96038900    -0.21800
C108        C  0.89508771  0.55717386  0.96615481    -0.21800
C109        C  0.10635130  0.43664491  0.99580513    -0.21800
C110        C  0.08103680  0.40577633  0.00057185    -0.21800
C111        C  0.05680476  0.60755660  0.00500882    -0.22900
C112        C  0.08866639  0.58175810  0.01084033    -0.22800
C113        C  0.90594763  0.42359870  0.02997981    -0.22900
C114        C  0.93771676  0.39755761  0.03528610    -0.22800
C115        C  0.98839036  0.59969117  0.98253288    -0.18200
C116        C  0.89830946  0.49189480  0.00162362    -0.18200
C117        C  0.00997475  0.40024945  0.02015845    -0.18200
C118        C  0.09960874  0.50927100  0.00420115    -0.18200
H119        H  0.91444778  0.61546793  0.94489976     0.14700
H120        H  0.86509924  0.55704636  0.95589945     0.14700
H121        H  0.13756563  0.43405186  0.98757493     0.14700
H122        H  0.08898059  0.37477554  0.99670493     0.14700
H123        H  0.05703458  0.63951172  0.00636103     0.13000
H124        H  0.11835801  0.58978529  0.01758895     0.13000
H125        H  0.87506835  0.41711910  0.03546354     0.13000
H126        H  0.93617258  0.36703433  0.04571915     0.13000
H127        H  0.97091103  0.52518158  0.01510576     0.26300
H128        H  0.02464828  0.48107781  0.02534162     0.26300
N129        N  0.04898217  0.54784261  0.50054814    -0.36500
N130        N  0.96482261  0.55528439  0.51757172    -0.57100
N131        N  0.95989318  0.46998872  0.51471846    -0.36500
N132        N  0.04374912  0.46270743  0.49472989    -0.57100
C133        C  0.04285346  0.58731730  0.49446700     0.27100
C134        C  0.08507734  0.53807385  0.48472812     0.27100
C135        C  0.92106964  0.48127064  0.51501300     0.27100
C136        C  0.96279691  0.43229970  0.50251801     0.27100
C137        C  0.97431961  0.59305256  0.52312819     0.35700
C138        C  0.92744155  0.55164178  0.53202090     0.35700
C139        C  0.08351435  0.46514738  0.49532513     0.35700
C140        C  0.03612041  0.42405393  0.50088940     0.35700
C141        C  0.07567945  0.60283481  0.47477765    -0.21800
C142        C  0.10236387  0.57168937  0.46865408    -0.21800
C143        C  0.89899320  0.45028085  0.50305338    -0.21800
C144        C  0.92538877  0.41929210  0.49526716    -0.21800
C145        C  0.94265601  0.61362353  0.54097447    -0.22900
C146        C  0.91301246  0.58723201  0.54688756    -0.22800
C147        C  0.10129684  0.42788512  0.50143685    -0.22900
C148        C  0.07117554  0.40174377  0.50483336    -0.22800
C149        C  0.00979262  0.60992912  0.50897017    -0.18200
C150        C  0.10398464  0.50017390  0.48734076    -0.18200
C151        C  0.99802018  0.40849600  0.50077503    -0.18200
C152        C  0.90489386  0.51787157  0.52818532    -0.18200
H153        H  0.08041998  0.63349453  0.46640406     0.14700
H154        H  0.13143791  0.57364378  0.45453128     0.14700
H155        H  0.86711443  0.44981517  0.50069991     0.14700
H156        H  0.91786869  0.39032029  0.48585324     0.14700
H157        H  0.94070763  0.64456080  0.54828968     0.13000
H158        H  0.88380093  0.59379029  0.55962062     0.13000
H159        H  0.13268309  0.42027842  0.50272394     0.13000
H160        H  0.07467142  0.36996849  0.50948192     0.13000
H161        H  0.03201129  0.52951146  0.51881094     0.26300
H162        H  0.98237141  0.48529509  0.52681321     0.26300
O163        O  0.60193581  0.46968338  0.50339523    -0.80800
O164        O  0.42368517  0.47789343  0.47296655    -0.65500
O165        O  0.53196612  0.50396454  0.47487155    -1.12100
C166        C  0.49627092  0.52964357  0.60822383     1.06100
O167        O  0.40937239  0.53635201  0.49782349    -0.78700
O168        O  0.45768951  0.58470085  0.53419555    -0.66300
Ni169      Ni  0.57309217  0.46906286  0.45565706     1.34900
C170        C  0.49169774  0.59625648  0.52304583     0.84800
O171        O  0.48212330  0.47869346  0.41760619    -0.79200
O172        O  0.54761981  0.46716225  0.40622728    -0.89500
C173        C  0.39863861  0.50560087  0.48111354     0.84400
O174        O  0.55209904  0.41913767  0.47220902    -0.67700
O175        O  0.46046359  0.53316559  0.59703709    -0.87000
C176        C  0.51769619  0.40770159  0.48213696     0.85200
C177        C  0.51195267  0.47105103  0.39475717     1.06800
H178        H  0.47517192  0.47483155  0.54211533     0.38600
O179        O  0.47721721  0.49957029  0.52725167    -1.09700
O180        O  0.52102112  0.57178561  0.51761438    -0.66300
Ni181      Ni  0.53030165  0.51513240  0.52949929     1.26300
O182        O  0.48770874  0.43190915  0.48450008    -0.66500
O183        O  0.52634542  0.52409021  0.58494202    -0.78800
C184        C  0.61128253  0.50108752  0.51991404     0.84600
O185        O  0.58478717  0.52693785  0.52921919    -0.66000
Ni186      Ni  0.43613603  0.53414093  0.54685027     1.27400
Ni187      Ni  0.47859908  0.48850436  0.47268187     1.26100
H188        H  0.53414691  0.52861071  0.45993914     0.39200
N189        N  0.45781357  0.49959458  0.96003924    -0.36500
N190        N  0.54338856  0.49093654  0.95957911    -0.57100
N191        N  0.54056270  0.47839370  0.04418652    -0.36500
N192        N  0.45471895  0.49082642  0.04479663    -0.57100
C193        C  0.46707261  0.51168371  0.92282176     0.27100
C194        C  0.42030993  0.51305594  0.96824092     0.27100
C195        C  0.57961755  0.48487980  0.03785245     0.27100
C196        C  0.53242832  0.48232928  0.08295351     0.27100
C197        C  0.53796249  0.48932687  0.92066701     0.35700
C198        C  0.58188542  0.48069875  0.96517711     0.35700
C199        C  0.41557748  0.48996050  0.03795873     0.35700
C200        C  0.45915924  0.47747598  0.08216206     0.35700
C201        C  0.43505660  0.53285158  0.90707517    -0.21800
C202        C  0.40559651  0.53394388  0.93585340    -0.21800
C203        C  0.59657442  0.49253445  0.07315600    -0.21800
C204        C  0.56682508  0.49071149  0.10165372    -0.21800
C205        C  0.57313809  0.47794158  0.90140741    -0.22900
C206        C  0.60104000  0.47253499  0.92965085    -0.22800
C207        C  0.39508242  0.47601967  0.07115428    -0.22900
C208        C  0.42271016  0.46837402  0.09928181    -0.22800
C209        C  0.50280492  0.50201910  0.90205226    -0.18200
C210        C  0.39798489  0.50411848  0.00295972    -0.18200
C211        C  0.49512353  0.47684957  0.10204097    -0.18200
C212        C  0.60068249  0.48222690  0.00139805    -0.18200
H213        H  0.43301501  0.54590456  0.87779990     0.14700
H214        H  0.37640801  0.54797106  0.93302434     0.14700
H215        H  0.62725804  0.49857886  0.07797469     0.14700
H216        H  0.57014670  0.49511717  0.13260971     0.14700
H217        H  0.57838872  0.47491637  0.87018998     0.13000
H218        H  0.63204903  0.46432084  0.92454875     0.13000
H219        H  0.36348038  0.47227593  0.07494792     0.13000
H220        H  0.41662676  0.45779520  0.12906305     0.13000
H221        H  0.47422120  0.47918326  0.97694951     0.26300
H222        H  0.52141748  0.46790252  0.02405253     0.26300
N223        N  0.50119619  0.95834603  0.54321504    -0.36500
N224        N  0.49842307  0.04594412  0.54108494    -0.57100
N225        N  0.50178002  0.04604372  0.45583694    -0.36500
N226        N  0.49933620  0.95868509  0.45820427    -0.57100
C227        C  0.49344360  0.96561615  0.58159378     0.27100
C228        C  0.49438812  0.91954163  0.53775466     0.27100
C229        C  0.49368278  0.08514967  0.46185206     0.27100
C230        C  0.49320527  0.03906016  0.41818900     0.27100
C231        C  0.50451977  0.03871023  0.57977577     0.35700
C232        C  0.50514025  0.08489950  0.53363967     0.35700
C233        C  0.50575306  0.91920254  0.46516004     0.35700
C234        C  0.50522966  0.96538674  0.41913056     0.35700
C235        C  0.48166355  0.93093484  0.60075900    -0.21800
C236        C  0.48230802  0.90196342  0.57319682    -0.21800
C237        C  0.48000949  0.10312654  0.42751599    -0.21800
C238        C  0.47968905  0.07416070  0.40008217    -0.21800
C239        C  0.51489161  0.07328709  0.59695516    -0.22900
C240        C  0.51550238  0.10236883  0.56780755    -0.22800
C241        C  0.51553167  0.90080808  0.43029947    -0.22900
C242        C  0.51511555  0.92995275  0.40121643    -0.22800
C243        C  0.49917844  0.00189451  0.60038599    -0.18200
C244        C  0.50059978  0.89910815  0.50211328    -0.18200
C245        C  0.49940348  0.00251249  0.39892211    -0.18200
C246        C  0.49974877  0.10542496  0.49697090    -0.18200
H247        H  0.47381987  0.92677441  0.63157253     0.14700
H248        H  0.47497054  0.87133429  0.57872294     0.14700
H249        H  0.47114496  0.13397986  0.42265330     0.14700
H250        H  0.47079031  0.07855023  0.37003677     0.14700
H251        H  0.52136742  0.07720745  0.62738286     0.13000
H252        H  0.52250479  0.13297924  0.57149140     0.13000
H253        H  0.52182690  0.86954214  0.42616561     0.13000
H254        H  0.52112811  0.92548005  0.37031934     0.13000
H255        H  0.51452153  0.97768065  0.52302482     0.26300
H256        H  0.51628532  0.02620023  0.47489301     0.26300
C257        C  0.51258078  0.36382791  0.48936922    -0.19800
C258        C  0.54500174  0.33780820  0.49933744     0.36400
C259        C  0.54059832  0.29636044  0.50031480    -0.25700
C260        C  0.50451306  0.27956093  0.49196609     0.02900
C261        C  0.47156984  0.30541496  0.48377897     0.27700
C262        C  0.47589038  0.34704523  0.48276200    -0.24900
N263        N  0.58248905  0.35346800  0.50847963    -0.82300
H264        H  0.56568815  0.27685757  0.50766661     0.13500
C265        C  0.50218602  0.23498317  0.49175332     0.02900
N266        N  0.43408704  0.28934247  0.47539166    -0.80800
H267        H  0.45079718  0.36641482  0.47513192     0.18300
C268        C  0.47367920  0.21549821  0.51555080    -0.25700
C269        C  0.47178479  0.17367493  0.51704175     0.36400
C270        C  0.49971396  0.15031405  0.49518061    -0.19700
C271        C  0.52782338  0.16980677  0.47094188    -0.24900
C272        C  0.52901542  0.21163243  0.46858581     0.27700
H273        H  0.45295025  0.23301209  0.53335331     0.13500
N274        N  0.44161079  0.15476703  0.54079953    -0.82200
H275        H  0.54893283  0.15219100  0.45363341     0.18300
N276        N  0.55721986  0.23054237  0.44240745    -0.80800
H277        H  0.42347721  0.17587861  0.55514256     0.34000
H278        H  0.42351207  0.14031725  0.52201292     0.38500
H279        H  0.57475812  0.20940565  0.42743921     0.33900
H280        H  0.54123888  0.24683805  0.42122151     0.30600
H281        H  0.41286773  0.31208878  0.47005584     0.33900
H282        H  0.43789313  0.27384718  0.44945714     0.30600
H283        H  0.57815399  0.36940381  0.53409636     0.38500
H284        H  0.60329019  0.33058256  0.51475318     0.34000
C285        C  0.49655368  0.64048414  0.51793493    -0.19800
C286        C  0.52796845  0.65792580  0.49568592     0.36400
C287        C  0.53030860  0.69989065  0.49294823    -0.25700
C288        C  0.50194081  0.72508080  0.51183432     0.02900
C289        C  0.47126744  0.70760757  0.53465751     0.27700
C290        C  0.46873817  0.66603759  0.53712748    -0.24900
N291        N  0.55704935  0.63323287  0.47550280    -0.82300
H292        H  0.55396282  0.71305045  0.47537552     0.13500
C293        C  0.50344373  0.76962704  0.50727758     0.02900
N294        N  0.44286136  0.73230193  0.55578684    -0.80800
H295        H  0.44493654  0.65350308  0.55497032     0.18300
C296        C  0.47022490  0.79144223  0.49306034    -0.25700
C297        C  0.46863364  0.83332857  0.49117924     0.36400
C298        C  0.50115384  0.85436069  0.50345716    -0.19700
C299        C  0.53465046  0.83271088  0.51716156    -0.24900
C300        C  0.53613155  0.79071023  0.51927606     0.27700
H301        H  0.44505177  0.77557125  0.48380688     0.13500
N302        N  0.43353127  0.85456808  0.47806084    -0.82200
H303        H  0.55962963  0.84875550  0.52659910     0.18300
N304        N  0.57038215  0.76947975  0.53430912    -0.80800
H305        H  0.41173015  0.83483435  0.47160876     0.34000
H306        H  0.44081435  0.86959773  0.45173517     0.38500
H307        H  0.59181426  0.78920329  0.54177402     0.33900
H308        H  0.56152840  0.75461329  0.56029028     0.30600
H309        H  0.42204481  0.71511414  0.57114002     0.33900
H310        H  0.45816699  0.74695226  0.57677346     0.30600
H311        H  0.54252594  0.61874061  0.45385364     0.38500
H312        H  0.57833083  0.65051276  0.46095939     0.34000
C313        C  0.50578697  0.46810642  0.35223852    -0.19800
C314        C  0.47273181  0.44981112  0.33716182     0.36400
C315        C  0.46901899  0.44844826  0.29621827    -0.25700
C316        C  0.49737237  0.46536035  0.27051385     0.02900
C317        C  0.53061788  0.48276444  0.28551752     0.27700
C318        C  0.53450244  0.48393830  0.32613957    -0.24900
N319        N  0.44386343  0.43168297  0.36319082    -0.82300
H320        H  0.44371902  0.43479569  0.28428574     0.13500
C321        C  0.49206337  0.46621489  0.22773211     0.02900
N322        N  0.56015523  0.49947294  0.25923871    -0.80800
H323        H  0.55992043  0.49786621  0.33753020     0.18300
C324        C  0.48246537  0.50265046  0.20886899    -0.25700
C325        C  0.48295385  0.50633403  0.16791665     0.36400
C326        C  0.49319194  0.47316178  0.14544349    -0.19700
C327        C  0.50160051  0.43635523  0.16416703    -0.24900
C328        C  0.50115894  0.43254397  0.20534802     0.27700
H329        H  0.47575709  0.52859851  0.22607019     0.13500
N330        N  0.47394504  0.54396414  0.14907988    -0.82200
H331        H  0.50908261  0.41085485  0.14658822     0.18300
N332        N  0.51066659  0.39501246  0.22450880    -0.80800
H333        H  0.44535170  0.55329333  0.15830672     0.34000
H334        H  0.49382025  0.56428248  0.15864248     0.38500
H335        H  0.51640824  0.37323151  0.20380898     0.33900
H336        H  0.53698662  0.39784337  0.23930245     0.30600
H337        H  0.58262679  0.51151103  0.27492487     0.33900
H338        H  0.57343964  0.47632652  0.24331257     0.30600
H339        H  0.42771775  0.45436732  0.37731602     0.38500
H340        H  0.42337020  0.41691454  0.34725510     0.34000
C341        C  0.50271490  0.53064454  0.65080854    -0.19800
C342        C  0.48130481  0.55793369  0.67462413     0.36400
C343        C  0.48393205  0.55432685  0.71560855    -0.25700
C344        C  0.50834282  0.52465975  0.73314249     0.02900
C345        C  0.53117429  0.49856817  0.70923288     0.27700
C346        C  0.52813677  0.50182924  0.66826619    -0.24900
N347        N  0.45696237  0.58910181  0.65703776    -0.82300
H348        H  0.46655691  0.57441169  0.73405520     0.13500
C349        C  0.50803221  0.51974915  0.77657221     0.02900
N350        N  0.55677355  0.46843841  0.72678098    -0.80800
H351        H  0.54459517  0.48091872  0.64996343     0.18300
C352        C  0.49484396  0.48393817  0.79358232    -0.25700
C353        C  0.49317318  0.47754482  0.83424722     0.36400
C354        C  0.50408485  0.50773489  0.85876327    -0.19700
C355        C  0.51708183  0.54357120  0.84209781    -0.24900
C356        C  0.51981840  0.54986023  0.80129919     0.27700
H357        H  0.48575128  0.46073275  0.77502773     0.13500
N358        N  0.48063436  0.44007878  0.85000026    -0.82200
H359        H  0.52582891  0.56660925  0.86102846     0.18300
N360        N  0.53534969  0.58665071  0.78636680    -0.80800
H361        H  0.45582466  0.44507032  0.86856346     0.34000
H362        H  0.50347524  0.42729330  0.86671161     0.38500
H363        H  0.56401850  0.58840386  0.79672237     0.33900
H364        H  0.53860629  0.58732839  0.75589981     0.30600
H365        H  0.57124629  0.45144660  0.70521759     0.33900
H366        H  0.57878916  0.48270734  0.74115005     0.30600
H367        H  0.47568843  0.60742822  0.64026083     0.38500
H368        H  0.44335516  0.60674103  0.67858623     0.34000
C369        C  0.14764147  0.49732009  0.48213489    -0.19800
C370        C  0.16677873  0.48348552  0.44739398     0.36400
C371        C  0.20827693  0.48201330  0.44455103    -0.25700
C372        C  0.23069007  0.49407566  0.47546568     0.02900
C373        C  0.21172988  0.50697111  0.51034272     0.27700
C374        C  0.17024973  0.50866216  0.51326362    -0.24900
N375        N  0.14529477  0.47184215  0.41424911    -0.82300
H376        H  0.22313475  0.47223768  0.41775801     0.13500
C377        C  0.27405028  0.49535098  0.47061104     0.02900
N378        N  0.23481204  0.51863775  0.54238000    -0.80800
H379        H  0.15535517  0.51888346  0.53987642     0.18300
C380        C  0.29089036  0.53221307  0.46365009    -0.25700
C381        C  0.33204358  0.53592985  0.46421179     0.36400
C382        C  0.35653111  0.50202028  0.47239056    -0.19700
C383        C  0.33973605  0.46467204  0.47659065    -0.24900
C384        C  0.29846894  0.46105371  0.47611384     0.27700
H385        H  0.27168822  0.55828940  0.45893515     0.13500
N386        N  0.34900481  0.57400461  0.45716682    -0.82200
H387        H  0.35859298  0.43863216  0.48262200     0.18300
N388        N  0.28116946  0.42307543  0.48253954    -0.80800
H389        H  0.32682582  0.59581615  0.45184962     0.34000
H390        H  0.36665897  0.57237773  0.43148562     0.38500
H391        H  0.30331271  0.40082635  0.48595000     0.33900
H392        H  0.26478117  0.42379532  0.50904528     0.30600
H393        H  0.21628483  0.52770641  0.56580568     0.33900
H394        H  0.25105084  0.49356051  0.55245400     0.30600
H395        H  0.11469636  0.47569800  0.41877865     0.38500
H396        H  0.15121155  0.44153234  0.41079450     0.34000
C397        C  0.65336162  0.50668784  0.52867876    -0.19800
C398        C  0.66796443  0.54442038  0.53608774     0.36400
C399        C  0.70886471  0.54825938  0.54026847    -0.25700
C400        C  0.73526836  0.51545653  0.53713910     0.02900
C401        C  0.72085846  0.47783533  0.53037926     0.27700
C402        C  0.68006693  0.47378127  0.52657587    -0.24900
N403        N  0.64174565  0.57895298  0.53775529    -0.82300
H404        H  0.72039752  0.57707887  0.54533539     0.13500
C405        C  0.77831476  0.52102488  0.53823390     0.02900
N406        N  0.74789267  0.44413662  0.52625545    -0.80800
H407        H  0.66925460  0.44480746  0.52092277     0.18300
C408        C  0.80034755  0.50071917  0.56718815    -0.25700
C409        C  0.84176930  0.50082087  0.56601811     0.36400
C410        C  0.86142225  0.52172938  0.53498995    -0.19700
C411        C  0.83927765  0.54383438  0.50732615    -0.24900
C412        C  0.79778344  0.54361207  0.50854385     0.27700
H413        H  0.78521497  0.48377177  0.59025252     0.13500
N414        N  0.86273859  0.47916960  0.59637713    -0.82200
H415        H  0.85457985  0.55980085  0.48367617     0.18300
N416        N  0.77542036  0.56484073  0.47890678    -0.80800
H417        H  0.85810400  0.44904678  0.59316923     0.34000
H418        H  0.89326648  0.48290728  0.59383304     0.38500
H419        H  0.79430243  0.58014759  0.45936827     0.33900
H420        H  0.76161536  0.54396791  0.46260518     0.30600
H421        H  0.73249286  0.41857838  0.52142089     0.33900
H422        H  0.76580721  0.44927949  0.50117148     0.30600
H423        H  0.62437382  0.57634245  0.56355893     0.38500
H424        H  0.65781021  0.60455268  0.54021507     0.34000
C425        C  0.85460731  0.48911006  0.00155783    -0.19800
C426        C  0.83105947  0.49987028  0.03461207     0.36400
C427        C  0.78969660  0.49722505  0.03363782    -0.25700
C428        C  0.77178021  0.48413838  0.00022457     0.02900
C429        C  0.79531421  0.47339092  0.96714197     0.27700
C430        C  0.83672016  0.47592026  0.96814842    -0.24900
N431        N  0.84930643  0.51393033  0.06869622    -0.82300
H432        H  0.77127788  0.50561119  0.05883551     0.13500
C433        C  0.72813660  0.48281400  0.00004499     0.02900
N434        N  0.77696946  0.46041324  0.93266205    -0.80800
H435        H  0.85515251  0.46784141  0.94286301     0.18300
C436        C  0.70640346  0.51520385  0.98397456    -0.25700
C437        C  0.66477276  0.51571036  0.98446524     0.36400
C438        C  0.64475307  0.48289354  0.00089780    -0.19700
C439        C  0.66659815  0.45041253  0.01685255    -0.24900
C440        C  0.70826119  0.45008029  0.01660448     0.27700
H441        H  0.72202622  0.54029685  0.97147796     0.13500
N442        N  0.64264689  0.54934821  0.96847719    -0.82200
H443        H  0.65101935  0.42533458  0.02942429     0.18300
N444        N  0.73051382  0.41691140  0.03332428    -0.80800
H445        H  0.66181291  0.57084361  0.95730174     0.34000
H446        H  0.62613960  0.56218135  0.99152772     0.38500
H447        H  0.71140387  0.39543148  0.04464049     0.33900
H448        H  0.74734769  0.40378535  0.01065855     0.30600
H449        H  0.79843374  0.45409371  0.91074869     0.33900
H450        H  0.76338565  0.43377746  0.94003864     0.30600
H451        H  0.86679830  0.49056100  0.08050877     0.38500
H452        H  0.82776362  0.52123445  0.09022833     0.34000
C453        C  0.35397930  0.50869394  0.00192783    -0.19800
C454        C  0.33224267  0.53483968  0.02666284     0.36400
C455        C  0.29063537  0.53646259  0.02592878    -0.25700
C456        C  0.27051003  0.51305723  0.00045367     0.02900
C457        C  0.29235617  0.48816195  0.97456556     0.27700
C458        C  0.33387778  0.48608006  0.97577243    -0.24900
N459        N  0.35253262  0.55928689  0.05256359    -0.82300
H460        H  0.27373717  0.55602874  0.04528728     0.13500
C461        C  0.22655079  0.51396520  0.00205008     0.02900
N462        N  0.27228242  0.46463576  0.94764717    -0.80800
H463        H  0.35075986  0.46630467  0.95660169     0.18300
C464        C  0.20568683  0.52410462  0.96803383    -0.25700
C465        C  0.16410420  0.52348021  0.96817506     0.36400
C466        C  0.14324451  0.51273808  0.00312101    -0.19700
C467        C  0.16392952  0.50334848  0.03725442    -0.24900
C468        C  0.20547163  0.50364853  0.03707435     0.27700
H469        H  0.22197757  0.53219890  0.94126975     0.13500
N470        N  0.14307859  0.53239205  0.93281827    -0.82200
H471        H  0.14752901  0.49499413  0.06387982     0.18300
N472        N  0.22639694  0.49271092  0.07204444    -0.80800
H473        H  0.16297461  0.53829689  0.90942424     0.34000
H474        H  0.12604802  0.55850624  0.93691102     0.38500
H475        H  0.20647703  0.48620689  0.09525651     0.33900
H476        H  0.24298952  0.46656737  0.06666540     0.30600
H477        H  0.29273097  0.44838572  0.93031515     0.33900
H478        H  0.25583881  0.44404905  0.96415533     0.30600
H479        H  0.36930525  0.57892803  0.03520936     0.38500
H480        H  0.33220062  0.57656296  0.06903366     0.34000
C481        C  0.49960461  0.00117234  0.64440336    -0.19800
C482        C  0.53152343  0.98293738  0.66478635     0.36400
C483        C  0.53044989  0.98162198  0.70618098    -0.25700
C484        C  0.49847702  0.99896266  0.72772044     0.02900
C485        C  0.46696567  0.01798011  0.70727307     0.27700
C486        C  0.46780452  0.01880391  0.66589485    -0.24900
N487        N  0.56496266  0.96600927  0.64324479    -0.82300
H488        H  0.55488618  0.96746307  0.72177394     0.13500
C489        C  0.49836262  0.99735771  0.77161981     0.02900
N490        N  0.43406267  0.03609122  0.72868631    -0.80800
H491        H  0.44343325  0.03301029  0.65024411     0.18300
C492        C  0.49840141  0.03279478  0.79203961    -0.25700
C493        C  0.49729919  0.03261103  0.83337252     0.36400
C494        C  0.49630366  0.99625745  0.85487272    -0.19700
C495        C  0.49663888  0.96075489  0.83458470    -0.24900
C496        C  0.49752297  0.96092875  0.79319078     0.27700
H497        H  0.49928989  0.06073742  0.77557475     0.13500
N498        N  0.49769447  0.06914901  0.85370160    -0.82200
H499        H  0.49600280  0.93287057  0.85117373     0.18300
N500        N  0.49711602  0.92432408  0.77295772    -0.80800
H501        H  0.49916498  0.09322443  0.83372969     0.34000
H502        H  0.47064230  0.07249745  0.86925384     0.38500
H503        H  0.49656787  0.90022726  0.79297045     0.33900
H504        H  0.47067258  0.92429521  0.75785019     0.30600
H505        H  0.41346146  0.04900410  0.70944300     0.33900
H506        H  0.41962009  0.01360358  0.74457950     0.30600
H507        H  0.57862849  0.98910408  0.62751936     0.38500
H508        H  0.58596223  0.95374136  0.66243041     0.34000
C509        C  0.49829261  0.00295280  0.35497312    -0.19800
C510        C  0.52994492  0.01740846  0.33121859     0.36400
C511        C  0.52813713  0.01640681  0.29003154    -0.25700
C512        C  0.49516181  0.00168898  0.27191081     0.02900
C513        C  0.46331863  0.98765696  0.29574802     0.27700
C514        C  0.46536771  0.98815077  0.33694434    -0.24900
N515        N  0.56427858  0.03201652  0.34901234    -0.82300
H516        H  0.55274298  0.02690817  0.27188835     0.13500
C517        C  0.49450998  0.00097675  0.22803983     0.02900
N518        N  0.42882509  0.97337016  0.27799794    -0.80800
H519        H  0.44105757  0.97717339  0.35520065     0.18300
C520        C  0.49033398  0.96485111  0.20952244    -0.25700
C521        C  0.49030552  0.96299043  0.16828094     0.36400
C522        C  0.49404620  0.99801356  0.14496389    -0.19700
C523        C  0.49825434  0.03408021  0.16336603    -0.24900
C524        C  0.49845938  0.03596652  0.20456825     0.27700
H525        H  0.48763124  0.93790512  0.22735883     0.13500
N526        N  0.48629586  0.92576553  0.14991254    -0.82200
H527        H  0.50132115  0.06089272  0.14538970     0.18300
N528        N  0.50230029  0.07335387  0.22269969    -0.80800
H529        H  0.48341923  0.90287656  0.17106792     0.34000
H530        H  0.51261530  0.91957472  0.13390255     0.38500
H531        H  0.50512263  0.09615576  0.20144152     0.33900
H532        H  0.47594305  0.07952743  0.23865710     0.30600
H533        H  0.40813161  0.96405939  0.29948816     0.33900
H534        H  0.41535391  0.99722353  0.26255078     0.30600
H535        H  0.55554855  0.05795172  0.36329398     0.38500
H536        H  0.58549289  0.04014729  0.32753762     0.34000
C537        C  0.00118143  0.86354516  0.49442035    -0.19800
C538        C  0.03399112  0.84277863  0.47749742     0.36400
C539        C  0.03602192  0.80133547  0.48008900    -0.25700
C540        C  0.00588419  0.78045245  0.49975133     0.02900
C541        C  0.97295662  0.80111988  0.51681045     0.27700
C542        C  0.97093988  0.84266966  0.51401261    -0.24900
N543        N  0.06552392  0.86383815  0.45829526    -0.82300
H544        H  0.06135528  0.78537441  0.46706903     0.13500
C545        C  0.00880590  0.73683341  0.50174988     0.02900
N546        N  0.94182021  0.77976660  0.53674203    -0.80800
H547        H  0.94592558  0.85892931  0.52725622     0.18300
C548        C  0.01442770  0.71719453  0.53804388    -0.25700
C549        C  0.01637148  0.67577555  0.54125091     0.36400
C550        C  0.01147162  0.65369070  0.50732494    -0.19700
C551        C  0.00625438  0.67346701  0.47098898    -0.24900
C552        C  0.00524464  0.71493946  0.46779177     0.27700
H553        H  0.01737691  0.73424506  0.56405535     0.13500
N554        N  0.02254527  0.65736448  0.57928064    -0.82200
H555        H  0.00256729  0.65635784  0.44515340     0.18300
N556        N  0.00009877  0.73499195  0.43039867    -0.80800
H557        H  0.05022416  0.66561935  0.58840308     0.34000
H558        H  0.02404237  0.62651987  0.57820311     0.38500
H559        H  0.99828834  0.71451557  0.40829637     0.33900
H560        H  0.97286855  0.75081556  0.43163877     0.30600
H561        H  0.91987329  0.79942287  0.54783374     0.33900
H562        H  0.92837183  0.76310270  0.51598279     0.30600
H563        H  0.09182792  0.85582050  0.47235677     0.38500
H564        H  0.06838807  0.85459665  0.42938963     0.34000
C565        C  0.99802880  0.15451466  0.49539770    -0.19800
C566        C  0.97071119  0.17729737  0.47297425     0.36400
C567        C  0.97027352  0.21873172  0.47393747    -0.25700
C568        C  0.99652474  0.23792245  0.49727515     0.02900
C569        C  0.02381165  0.21521122  0.52004159     0.27700
C570        C  0.02447196  0.17366179  0.51863964    -0.24900
N571        N  0.94296494  0.15832675  0.44967667    -0.82300
H572        H  0.94902421  0.23603444  0.45670609     0.13500
C573        C  0.99526977  0.28180580  0.49735710     0.02900
N574        N  0.05072786  0.23444160  0.54433415    -0.80800
H575        H  0.04547228  0.15603507  0.53586683     0.18300
C576        C  0.98698140  0.30106180  0.53265243    -0.25700
C577        C  0.98671234  0.34247691  0.53387073     0.36400
C578        C  0.99497875  0.36496969  0.49945293    -0.19700
C579        C  0.00241454  0.34599092  0.46396463    -0.24900
C580        C  0.00256575  0.30446845  0.46253237     0.27700
H581        H  0.98088522  0.28383915  0.55936629     0.13500
N582        N  0.97868510  0.36175297  0.57015525    -0.82200
H583        H  0.00872854  0.36363917  0.43757431     0.18300
N584        N  0.01070119  0.28516963  0.42609173    -0.80800
H585        H  0.99960015  0.35106293  0.59020049     0.34000
H586        H  0.95063171  0.35373253  0.58080368     0.38500
H587        H  0.01511706  0.30608740  0.40325929     0.33900
H588        H  0.03738418  0.26866569  0.42871587     0.30600
H589        H  0.06855052  0.21348130  0.55946948     0.33900
H590        H  0.06971925  0.25085388  0.52588562     0.30600
H591        H  0.94721324  0.16827578  0.42057298     0.38500
H592        H  0.91435380  0.16741742  0.45906927     0.34000
C593        C  0.98413269  0.64245306  0.97172878    -0.19800
C594        C  0.00663046  0.65981771  0.94034552     0.36400
C595        C  0.00553800  0.70102805  0.93513086    -0.25700
C596        C  0.98216273  0.72505759  0.96005104     0.02900
C597        C  0.95790213  0.70782258  0.98975761     0.27700
C598        C  0.95908586  0.66650763  0.99528546    -0.24900
N599        N  0.03115726  0.63679220  0.91365946    -0.82300
H600        H  0.02411970  0.71453353  0.91230888     0.13500
C601        C  0.98811276  0.76795878  0.95890079     0.02900
N602        N  0.93349675  0.73245431  0.01510730    -0.80800
H603        H  0.94176066  0.65304190  0.01909973     0.18300
C604        C  0.95862638  0.79433432  0.94461862    -0.25700
C605        C  0.96223217  0.83551236  0.94699519     0.36400
C606        C  0.99592718  0.85021081  0.96468095    -0.19700
C607        C  0.02610365  0.82329002  0.97723801    -0.24900
C608        C  0.02235994  0.78238678  0.97484450     0.27700
H609        H  0.93247770  0.78266837  0.93228142     0.13500
N610        N  0.93140675  0.86207486  0.93243824    -0.82200
H611        H  0.05218650  0.83399150  0.99050019     0.18300
N612        N  0.05263360  0.75525670  0.98967872    -0.80800
H613        H  0.90826515  0.84624983  0.92175353     0.34000
H614        H  0.94341824  0.87802482  0.90843568     0.38500
H615        H  0.07610233  0.77064643  0.00029892     0.33900
H616        H  0.04030702  0.73947046  0.01365796     0.30600
H617        H  0.91728605  0.71505423  0.03529553     0.33900
H618        H  0.95229592  0.74893224  0.03139136     0.30600
H619        H  0.02780891  0.60641794  0.91832204     0.38500
H620        H  0.06073526  0.64257429  0.91870624     0.34000
C621        C  0.01403064  0.35636420  0.02152883    -0.19800
C622        C  0.02177991  0.33481216  0.05667137     0.36400
C623        C  0.02258647  0.29311076  0.05683066    -0.25700
C624        C  0.01546988  0.27308219  0.02257260     0.02900
C625        C  0.00899875  0.29474286  0.98723842     0.27700
C626        C  0.00827250  0.33626888  0.98708908    -0.24900
N627        N  0.02810417  0.35537098  0.09196922    -0.82300
H628        H  0.02737975  0.27619720  0.08389353     0.13500
C629        C  0.01067890  0.22974598  0.02454919     0.02900
N630        N  0.00219253  0.27436321  0.95193695    -0.80800
H631        H  0.00247627  0.35317426  0.96021475     0.18300
C632        C  0.97219261  0.21572028  0.02577325    -0.25700
C633        C  0.96556330  0.17502495  0.02476094     0.36400
C634        C  0.99831854  0.14768583  0.02207214    -0.19700
C635        C  0.03698893  0.16183272  0.02244257    -0.24900
C636        C  0.04347796  0.20273619  0.02331798     0.27700
H637        H  0.94717972  0.23681086  0.02698960     0.13500
N638        N  0.92567015  0.16146928  0.02622129    -0.82200
H639        H  0.06221121  0.14109786  0.02027619     0.18300
N640        N  0.08307411  0.21701676  0.02206672    -0.80800
H641        H  0.90512414  0.18539473  0.02764263     0.34000
H642        H  0.92191462  0.14474171  0.05230414     0.38500
H643        H  0.10391789  0.19331479  0.02128609     0.33900
H644        H  0.08696761  0.23334988  0.99576157     0.30600
H645        H  0.99740355  0.29463824  0.92860518     0.33900
H646        H  0.02815593  0.25794097  0.94475612     0.30600
H647        H  0.00171912  0.37096919  0.09941766     0.38500
H648        H  0.03367047  0.33515176  0.11517199     0.34000
C649        C  0.64363744  0.99403926  0.99634512    -0.19800
C650        C  0.66707063  0.95983167  0.98708960     0.36400
C651        C  0.70896007  0.96148323  0.98487789    -0.25700
C652        C  0.72823863  0.99666836  0.99185415     0.02900
C653        C  0.70465339  0.03074434  0.00166385     0.27700
C654        C  0.66282774  0.02908588  0.00366379    -0.24900
N655        N  0.64810047  0.92369342  0.97934074    -0.82300
H656        H  0.72665493  0.93536680  0.97693010     0.13500
C657        C  0.77277416  0.99834844  0.98679878     0.02900
N658        N  0.72333779  0.06701918  0.00957843    -0.80800
H659        H  0.64497338  0.05535330  0.01083215     0.18300
C660        C  0.78881529  0.02635577  0.96012075    -0.25700
C661        C  0.83011777  0.03012657  0.95462849     0.36400
C662        C  0.85689844  0.00565930  0.97676600    -0.19700
C663        C  0.84092708  0.97650373  0.00255293    -0.24900
C664        C  0.79926937  0.97276847  0.00793732     0.27700
H665        H  0.76879994  0.04530757  0.94303592     0.13500
N666        N  0.84492237  0.05841580  0.92587922    -0.82200
H667        H  0.86094697  0.95721906  0.01927202     0.18300
N668        N  0.78380393  0.94358685  0.03531662    -0.80800
H669        H  0.82158780  0.07429020  0.91243919     0.34000
H670        H  0.86004097  0.04253298  0.90386518     0.38500
H671        H  0.80692907  0.92715142  0.04850054     0.33900
H672        H  0.76836377  0.95866495  0.05767734     0.30600
H673        H  0.70205082  0.08933565  0.01611897     0.33900
H674        H  0.73990794  0.06195645  0.03471247     0.30600
H675        H  0.63325711  0.91441569  0.00519205     0.38500
H676        H  0.66925735  0.90132746  0.97258890     0.34000
C677        C  0.13258630  0.99091585  0.01691200    -0.19800
C678        C  0.15805795  0.97189989  0.04457289     0.36400
C679        C  0.19947460  0.97631623  0.04100893    -0.25700
C680        C  0.21658247  0.99948006  0.01060338     0.02900
C681        C  0.19137349  0.01893052  0.98313669     0.27700
C682        C  0.14968082  0.01480564  0.98679034    -0.24900
N683        N  0.14171584  0.94841623  0.07663826    -0.82300
H684        H  0.21869565  0.96140105  0.06209205     0.13500
C685        C  0.26103285  0.00127131  0.00724834     0.02900
N686        N  0.20827236  0.04173120  0.95092342    -0.80800
H687        H  0.13056161  0.02948406  0.96548610     0.18300
C688        C  0.28303463  0.97069224  0.98869831    -0.25700
C689        C  0.32500928  0.96944839  0.98718995     0.36400
C690        C  0.34591098  0.00017148  0.00348763    -0.19700
C691        C  0.32376546  0.03074151  0.02223907    -0.24900
C692        C  0.28174160  0.03125656  0.02483317     0.27700
H693        H  0.26728923  0.94712651  0.97605254     0.13500
N694        N  0.34656757  0.93678765  0.96949936    -0.82200
H695        H  0.33945108  0.05402094  0.03543275     0.18300
N696        N  0.26011861  0.06132240  0.04644575    -0.80800
H697        H  0.32704634  0.91675645  0.95879113     0.34000
H698        H  0.36240743  0.92159907  0.99150146     0.38500
H699        H  0.27963338  0.08052774  0.05849746     0.33900
H700        H  0.24306853  0.07838201  0.02672195     0.30600
H701        H  0.18598514  0.05338035  0.93284824     0.33900
H702        H  0.22176093  0.06592767  0.96239263     0.30600
H703        H  0.12433795  0.96741313  0.09431793     0.38500
H704        H  0.16422244  0.93624945  0.09415551     0.34000
C705        C  0.96944220  0.00147726  0.84510158    -0.19800
C706        C  0.98950502  0.96861416  0.82738526     0.36400
C707        C  0.99360415  0.96798022  0.78631567    -0.25700
C708        C  0.97758948  0.99888647  0.76282936     0.02900
C709        C  0.95656470  0.03085464  0.78009358     0.27700
C710        C  0.95250925  0.03175364  0.82099731    -0.24900
N711        N  0.00680247  0.93671485  0.85083419    -0.82300
H712        H  0.00946898  0.94340106  0.77247144     0.13500
C713        C  0.98304286  0.99791321  0.71994688     0.02900
N714        N  0.94001352  0.06258855  0.75590129    -0.80800
H715        H  0.93676188  0.05680560  0.83409855     0.18300
C716        C  0.95070669  0.98906979  0.69757312    -0.25700
C717        C  0.95360468  0.99115443  0.65653947     0.36400
C718        C  0.98941109  0.00254913  0.63795014    -0.19700
C719        C  0.02206351  0.01061287  0.66026566    -0.24900
C720        C  0.01923656  0.00829045  0.70136255     0.27700
H721        H  0.92305909  0.98109250  0.71225571     0.13500
N722        N  0.92049299  0.98179862  0.63356811    -0.82200
H723        H  0.04959066  0.01885103  0.64551517     0.18300
N724        N  0.05266673  0.01669372  0.72431995    -0.80800
H725        H  0.89653298  0.97343815  0.65177505     0.34000
H726        H  0.91127366  0.00769749  0.61830852     0.38500
H727        H  0.07713632  0.02344993  0.70608066     0.33900
H728        H  0.04524487  0.04213834  0.73998344     0.30600
H729        H  0.92518904  0.08382736  0.77315005     0.33900
H730        H  0.96357506  0.07674746  0.74142631     0.30600
H731        H  0.98348357  0.92108970  0.86394408     0.38500
H732        H  0.02273813  0.91658238  0.83316755     0.34000
C733        C  0.01023260  0.01360079  0.35136657    -0.19800
C734        C  0.04632225  0.00207634  0.33232278     0.36400
C735        C  0.04870758  0.00236091  0.29118065    -0.25700
C736        C  0.01549182  0.01325144  0.26916051     0.02900
C737        C  0.97965441  0.02551308  0.28820557     0.27700
C738        C  0.97740649  0.02572432  0.32930826    -0.24900
N739        N  0.08015977  0.98995235  0.35488282    -0.82300
H740        H  0.07602292  0.99268707  0.27622339     0.13500
C741        C  0.01730113  0.00753399  0.22650777     0.02900
N742        N  0.94559181  0.03682927  0.26564347    -0.80800
H743        H  0.94983282  0.03455559  0.34429702     0.18300
C744        C  0.99856721  0.97502126  0.21223968    -0.25700
C745        C  0.99991325  0.96736047  0.17213838     0.36400
C746        C  0.01964265  0.99363804  0.14558805    -0.19700
C747        C  0.03832568  0.02636853  0.16004191    -0.24900
C748        C  0.03768564  0.03334257  0.20043893     0.27700
H749        H  0.98319564  0.95524610  0.23269584     0.13500
N750        N  0.98023531  0.93371652  0.15836183    -0.82200
H751        H  0.05364990  0.04635330  0.13978113     0.18300
N752        N  0.05748865  0.06642104  0.21512253    -0.80800
H753        H  0.96387109  0.92006056  0.18120115     0.34000
H754        H  0.00220392  0.91277095  0.14992046     0.38500
H755        H  0.07139937  0.08233571  0.19212484     0.33900
H756        H  0.03581127  0.08558623  0.22745606     0.27600
H757        H  0.92144286  0.04468555  0.28411841     0.33900
H758        H  0.95247415  0.06227028  0.24890903     0.30600
H759        H  0.07340292  0.96371968  0.37034429     0.38500
H760        H  0.10457285  0.98310115  0.33636055     0.34000
loop_ 
_geom_bond_atom_site_label_1 
_geom_bond_atom_site_label_2 
_geom_bond_distance 
_geom_bond_site_symmetry_2 
_ccdc_geom_bond_type 
O1           Ni7   1.926   1_556  S
O1           C22   1.273   1_455  A
O2          Ni25   1.915       .  S
O2           C11   1.272   1_455  A
O3           Ni7   1.895   1_655  S
O3          Ni25   1.899   1_665  S
O3          Ni19   1.906   1_554  S
O3           H26   0.967       .  S
C4           O21   1.275   1_545  A
C4           O13   1.280       .  A
C4          C705   1.486       .  S
O5          Ni24   1.927       .  S
O5           C11   1.273   1_556  A
O6          Ni24   1.915       .  S
O6            C8   1.270       .  A
Ni7          O10   1.916       .  S
Ni7          O12   1.916       .  S
C8           O18   1.278   1_545  A
C8          C662   1.510       .  S
O9          Ni25   1.927       .  S
O9           C15   1.282   1_545  A
O10          C15   1.278       .  A
C11         C634   1.486       .  S
O12          C14   1.270       .  A
O13         Ni24   1.925       .  S
C14          O20   1.277   1_565  A
C14         C677   1.506       .  S
C15         C746   1.478       .  S
H16          O17   0.966   1_455  S
O17         Ni25   1.911   1_656  S
O17         Ni19   1.898   1_545  S
O17         Ni24   1.896       .  S
O18         Ni19   1.959       .  S
Ni19         O23   1.902       .  S
Ni19         O21   1.911       .  S
O20         Ni25   1.956       .  S
C22          O23   1.267       .  A
C22         C606   1.485       .  S
N27          C32   1.351   1_655  A
N27          C31   1.350   1_655  A
N27          H59   1.039       .  S
N28          C35   1.350       .  A
N28          C36   1.350       .  A
N29          C34   1.353   1_655  A
N29          C33   1.353   1_655  A
N29          H60   1.040       .  S
N30          C37   1.349   1_455  A
N30          C38   1.349   1_455  A
C31          C39   1.386       .  A
C31          C47   1.407   1_465  A
C32          C48   1.411   1_455  A
C32          C40   1.388       .  A
C33          C41   1.387       .  A
C33          C50   1.415   1_455  A
C34          C49   1.413       .  A
C34          C42   1.386       .  A
C35          C47   1.408       .  A
C35          C43   1.385       .  A
C36          C50   1.412       .  A
C36          C44   1.387       .  A
C37          C45   1.386       .  A
C37          C48   1.410       .  A
C38          C46   1.387       .  A
C38          C49   1.410   1_665  A
C39          C40   1.373       .  A
C39          H51   1.082       .  S
C40          H52   1.082       .  S
C41          C42   1.376       .  A
C41          H53   1.082       .  S
C42          H54   1.082       .  S
C43          C44   1.372       .  A
C43          H55   1.082       .  S
C44          H56   1.082       .  S
C45          C46   1.373       .  A
C45          H57   1.082       .  S
C46          H58   1.082       .  S
C47         C718   1.477       .  S
C48         C537   1.481   1_655  S
C49         C733   1.481       .  S
C50         C565   1.489       .  S
N61          C66   1.360   1_545  A
N61          C65   1.363   1_545  A
N61          H93   1.036       .  S
N62          C69   1.359   1_565  A
N62          C70   1.357       .  A
N63          C68   1.361       .  A
N63          C67   1.357       .  A
N63          H94   1.033       .  S
N64          C71   1.355       .  A
N64          C72   1.358       .  A
C65          C73   1.387       .  A
C65          C81   1.431   1_565  A
C66          C82   1.429       .  A
C66          C74   1.388       .  A
C67          C75   1.388       .  A
C67          C84   1.428       .  A
C68          C83   1.429       .  A
C68          C76   1.387       .  A
C69          C81   1.428   1_556  A
C69          C77   1.386       .  A
C70          C84   1.427       .  A
C70          C78   1.387   1_565  A
C71          C79   1.388       .  A
C71          C82   1.425       .  A
C72          C80   1.386       .  A
C72          C83   1.425   1_554  A
C73          C74   1.376       .  A
C73          H85   1.082       .  S
C74          H86   1.082       .  S
C75          C76   1.376       .  A
C75          H87   1.082       .  S
C76          H88   1.082       .  S
C77          C78   1.374       .  A
C77          H89   1.082       .  S
C78          H90   1.082       .  S
C79          C80   1.374       .  A
C79          H91   1.082       .  S
C80          H92   1.082       .  S
C81         C690   1.520       .  S
C82         C522   1.502       .  S
C83         C649   1.512       .  S
C84         C494   1.501       .  S
N95         C100   1.351       .  A
N95          C99   1.351       .  A
N95         H127   1.039   1_556  S
N96         C103   1.348       .  A
N96         C104   1.348   1_556  A
N97         C102   1.352       .  A
N97         C101   1.352       .  A
N97         H128   1.039       .  S
N98         C105   1.351       .  A
N98         C106   1.350       .  A
C99         C107   1.387       .  A
C99         C115   1.411       .  A
C100        C116   1.411   1_556  A
C100        C108   1.387       .  A
C101        C109   1.387   1_554  A
C101        C118   1.413       .  A
C102        C117   1.413       .  A
C102        C110   1.387       .  A
C103        C115   1.410   1_455  A
C103        C111   1.387   1_556  A
C104        C118   1.407       .  A
C104        C112   1.386       .  A
C105        C113   1.386       .  A
C105        C116   1.411       .  A
C106        C114   1.386       .  A
C106        C117   1.412   1_655  A
C107        C108   1.376       .  A
C107        H119   1.082       .  S
C108        H120   1.082       .  S
C109        C110   1.376   1_556  A
C109        H121   1.082       .  S
C110        H122   1.082   1_554  S
C111        C112   1.373       .  A
C111        H123   1.082       .  S
C112        H124   1.082       .  S
C113        C114   1.373       .  A
C113        H125   1.082       .  S
C114        H126   1.082       .  S
C115        C593   1.482       .  S
C116        C425   1.482       .  S
C117        C621   1.483       .  S
C118        C466   1.481       .  S
N129        C134   1.350       .  A
N129        C133   1.352       .  A
N129        H161   1.039       .  S
N130        C137   1.349       .  A
N130        C138   1.348       .  A
N131        C136   1.352       .  A
N131        C135   1.350       .  A
N131        H162   1.039       .  S
N132        C139   1.349       .  A
N132        C140   1.349       .  A
C133        C141   1.388       .  A
C133        C149   1.413       .  A
C134        C150   1.410       .  A
C134        C142   1.386       .  A
C135        C143   1.388       .  A
C135        C152   1.414       .  A
C136        C151   1.410       .  A
C136        C144   1.386       .  A
C137        C149   1.410   1_655  A
C137        C145   1.387       .  A
C138        C152   1.408       .  A
C138        C146   1.386       .  A
C139        C147   1.386       .  A
C139        C150   1.408       .  A
C140        C148   1.386       .  A
C140        C151   1.408   1_455  A
C141        C142   1.375       .  A
C141        H153   1.082       .  S
C142        H154   1.082       .  S
C143        C144   1.375       .  A
C143        H155   1.082       .  S
C144        H156   1.082       .  S
C145        C146   1.372       .  A
C145        H157   1.082       .  S
C146        H158   1.082       .  S
C147        C148   1.372       .  A
C147        H159   1.082       .  S
C148        H160   1.082       .  S
C149        C550   1.481       .  S
C150        C369   1.478       .  S
C151        C578   1.480       .  S
C152        C410   1.479       .  S
O163       Ni169   1.927       .  S
O163        C184   1.273       .  A
O164       Ni187   1.901       .  S
O164        C173   1.268       .  A
O165       Ni169   1.901       .  S
O165       Ni187   1.899       .  S
O165       Ni181   1.914       .  S
O165        H188   0.966       .  S
C166        O183   1.281       .  A
C166        O175   1.280       .  A
C166        C341   1.479       .  S
O167       Ni186   1.926       .  S
O167        C173   1.272       .  A
O168       Ni186   1.913       .  S
O168        C170   1.269       .  A
Ni169       O172   1.923       .  S
Ni169       O174   1.916       .  S
C170        O180   1.278       .  A
C170        C285   1.513       .  S
O171       Ni187   1.920       .  S
O171        C177   1.277       .  A
O172        C177   1.279       .  A
C173        C382   1.472       .  S
O174        C176   1.270       .  A
O175       Ni186   1.923       .  S
C176        O182   1.279       .  A
C176        C257   1.510       .  S
C177        C313   1.481       .  S
H178        O179   0.967       .  S
O179       Ni187   1.911       .  S
O179       Ni181   1.892       .  S
O179       Ni186   1.897       .  S
O180       Ni181   1.959       .  S
Ni181       O185   1.897       .  S
Ni181       O183   1.927       .  S
O182       Ni187   1.956       .  S
C184        O185   1.266       .  A
C184        C397   1.482       .  S
N189        C194   1.352       .  A
N189        C193   1.352       .  A
N189        H221   1.039       .  S
N190        C197   1.350       .  A
N190        C198   1.350       .  A
N191        C196   1.353       .  A
N191        C195   1.354       .  A
N191        H222   1.039       .  S
N192        C199   1.351       .  A
N192        C200   1.350       .  A
C193        C201   1.386       .  A
C193        C209   1.412       .  A
C194        C210   1.414   1_556  A
C194        C202   1.387       .  A
C195        C203   1.388       .  A
C195        C212   1.417       .  A
C196        C211   1.414       .  A
C196        C204   1.387       .  A
C197        C209   1.410       .  A
C197        C205   1.386       .  A
C198        C212   1.412   1_556  A
C198        C206   1.387       .  A
C199        C207   1.387       .  A
C199        C210   1.413       .  A
C200        C208   1.386       .  A
C200        C211   1.409       .  A
C201        C202   1.375       .  A
C201        H213   1.082       .  S
C202        H214   1.082       .  S
C203        C204   1.377       .  A
C203        H215   1.082       .  S
C204        H216   1.082       .  S
C205        C206   1.373       .  A
C205        H217   1.082       .  S
C206        H218   1.082       .  S
C207        C208   1.372       .  A
C207        H219   1.082       .  S
C208        H220   1.082       .  S
C209        C354   1.484       .  S
C210        C453   1.489       .  S
C211        C326   1.483       .  S
C212        C438   1.488       .  S
N223        C228   1.360       .  A
N223        C227   1.357       .  A
N223        H255   1.038       .  S
N224        C231   1.356       .  A
N224        C232   1.358       .  A
N225        C230   1.357       .  A
N225        C229   1.360       .  A
N225        H256   1.039       .  S
N226        C233   1.357       .  A
N226        C234   1.355       .  A
C227        C235   1.388       .  A
C227        C243   1.425   1_565  A
C228        C244   1.425       .  A
C228        C236   1.386       .  A
C229        C237   1.387       .  A
C229        C246   1.425       .  A
C230        C245   1.424       .  A
C230        C238   1.387       .  A
C231        C243   1.423       .  A
C231        C239   1.387       .  A
C232        C246   1.424       .  A
C232        C240   1.386       .  A
C233        C241   1.386       .  A
C233        C244   1.422       .  A
C234        C242   1.387       .  A
C234        C245   1.421   1_565  A
C235        C236   1.379       .  A
C235        H247   1.082       .  S
C236        H248   1.082       .  S
C237        C238   1.378       .  A
C237        H249   1.082       .  S
C238        H250   1.082       .  S
C239        C240   1.375       .  A
C239        H251   1.082       .  S
C240        H252   1.082       .  S
C241        C242   1.375       .  A
C241        H253   1.082       .  S
C242        H254   1.082       .  S
C243        C481   1.503       .  S
C244        C298   1.510       .  S
C245        C509   1.502       .  S
C246        C270   1.516       .  S
C257        C258   1.420       .  A
C257        C262   1.410       .  A
C258        C259   1.413       .  A
C258        N263   1.438       .  S
C259        C260   1.405       .  A
C259        H264   1.083       .  S
C260        C265   1.511       .  S
C260        C261   1.416       .  A
C261        C262   1.419       .  A
C261        N266   1.437       .  S
C262        H267   1.083       .  S
N263        H283   1.046       .  S
N263        H284   1.046       .  S
C265        C268   1.408       .  A
C265        C272   1.417       .  A
N266        H281   1.046       .  S
N266        H282   1.046       .  S
C268        C269   1.416       .  A
C268        H273   1.083       .  S
C269        C270   1.416       .  A
C269        N274   1.437       .  S
C270        C271   1.407       .  A
C271        C272   1.415       .  A
C271        H275   1.084       .  S
C272        N276   1.438       .  S
N274        H277   1.045       .  S
N274        H278   1.046       .  S
N276        H279   1.046       .  S
N276        H280   1.046       .  S
C285        C286   1.419       .  A
C285        C290   1.411       .  A
C286        C287   1.423       .  A
C286        N291   1.437       .  S
C287        C288   1.411       .  A
C287        H292   1.083       .  S
C288        C293   1.510       .  S
C288        C289   1.411       .  A
C289        C290   1.410       .  A
C289        N294   1.438       .  S
C290        H295   1.083       .  S
N291        H311   1.046       .  S
N291        H312   1.046       .  S
C293        C296   1.408       .  A
C293        C300   1.415       .  A
N294        H309   1.045       .  S
N294        H310   1.046       .  S
C296        C297   1.413       .  A
C296        H301   1.083       .  S
C297        C298   1.413       .  A
C297        N302   1.438       .  S
C298        C299   1.407       .  A
C299        C300   1.417       .  A
C299        H303   1.083       .  S
C300        N304   1.437       .  S
N302        H305   1.046       .  S
N302        H306   1.045       .  S
N304        H307   1.046       .  S
N304        H308   1.046       .  S
C313        C314   1.416       .  A
C313        C318   1.404       .  A
C314        C315   1.410       .  A
C314        N319   1.438       .  S
C315        C316   1.402       .  A
C315        H320   1.084       .  S
C316        C321   1.477       .  S
C316        C317   1.406       .  A
C317        C318   1.400       .  A
C317        N322   1.438       .  S
C318        H323   1.084       .  S
N319        H339   1.045       .  S
N319        H340   1.046       .  S
C321        C324   1.402       .  A
C321        C328   1.410       .  A
N322        H337   1.045       .  S
N322        H338   1.046       .  S
C324        C325   1.399       .  A
C324        H329   1.084       .  S
C325        C326   1.405       .  A
C325        N330   1.432       .  S
C326        C327   1.402       .  A
C327        C328   1.407       .  A
C327        H331   1.084       .  S
C328        N332   1.437       .  S
N330        H333   1.045       .  S
N330        H334   1.046       .  S
N332        H335   1.046       .  S
N332        H336   1.045       .  S
C341        C342   1.412       .  A
C341        C346   1.403       .  A
C342        C343   1.406       .  A
C342        N347   1.438       .  S
C343        C344   1.404       .  A
C343        H348   1.084       .  S
C344        C349   1.486       .  S
C344        C345   1.411       .  A
C345        C346   1.406       .  A
C345        N350   1.438       .  S
C346        H351   1.084       .  S
N347        H367   1.046       .  S
N347        H368   1.046       .  S
C349        C352   1.406       .  A
C349        C356   1.420       .  A
N350        H365   1.046       .  S
N350        H366   1.046       .  S
C352        C353   1.398       .  A
C352        H357   1.084       .  S
C353        C354   1.408       .  A
C353        N358   1.432       .  S
C354        C355   1.400       .  A
C355        C356   1.403       .  A
C355        H359   1.084       .  S
C356        N360   1.439       .  S
N358        H361   1.045       .  S
N358        H362   1.046       .  S
N360        H363   1.046       .  S
N360        H364   1.042       .  S
C369        C370   1.416       .  A
C369        C374   1.401       .  A
C370        C371   1.400       .  A
C370        N375   1.438       .  S
C371        C372   1.399       .  A
C371        H376   1.084       .  S
C372        C377   1.470       .  S
C372        C373   1.407       .  A
C373        C374   1.399       .  A
C373        N378   1.438       .  S
C374        H379   1.084       .  S
N375        H395   1.043       .  S
N375        H396   1.045       .  S
C377        C380   1.399       .  A
C377        C384   1.407       .  A
N378        H393   1.046       .  S
N378        H394   1.046       .  S
C380        C381   1.400       .  A
C380        H385   1.084       .  S
C381        C382   1.412       .  A
C381        N386   1.438       .  S
C382        C383   1.404       .  A
C383        C384   1.404       .  A
C383        H387   1.084       .  S
C384        N388   1.438       .  S
N386        H389   1.046       .  S
N386        H390   1.046       .  S
N388        H391   1.046       .  S
N388        H392   1.046       .  S
C397        C398   1.418       .  A
C397        C402   1.406       .  A
C398        C399   1.404       .  A
C398        N403   1.438       .  S
C399        C400   1.400       .  A
C399        H404   1.084       .  S
C400        C405   1.474       .  S
C400        C401   1.407       .  A
C401        C402   1.400       .  A
C401        N406   1.439       .  S
C402        H407   1.083       .  S
N403        H423   1.045       .  S
N403        H424   1.046       .  S
C405        C408   1.402       .  A
C405        C412   1.409       .  A
N406        H421   1.046       .  S
N406        H422   1.046       .  S
C408        C409   1.398       .  A
C408        H413   1.084       .  S
C409        C410   1.415       .  A
C409        N414   1.438       .  S
C410        C411   1.402       .  A
C411        C412   1.400       .  A
C411        H415   1.084       .  S
C412        N416   1.438       .  S
N414        H417   1.046       .  S
N414        H418   1.043       .  S
N416        H419   1.046       .  S
N416        H420   1.046       .  S
C425        C426   1.408       .  A
C425        C430   1.402   1_554  A
C426        C427   1.404       .  A
C426        N431   1.438       .  S
C427        C428   1.401       .  A
C427        H432   1.084       .  S
C428        C433   1.476       .  S
C428        C429   1.409   1_554  A
C429        C430   1.405       .  A
C429        N434   1.437       .  S
C430        H435   1.084       .  S
N431        H451   1.045       .  S
N431        H452   1.046       .  S
C433        C436   1.400   1_554  A
C433        C440   1.408       .  A
N434        H449   1.046       .  S
N434        H450   1.045       .  S
C436        C437   1.404       .  A
C436        H441   1.084       .  S
C437        C438   1.412   1_556  A
C437        N442   1.438       .  S
C438        C439   1.403       .  A
C439        C440   1.406       .  A
C439        H443   1.084       .  S
C440        N444   1.437       .  S
N442        H445   1.046       .  S
N442        H446   1.046       .  S
N444        H447   1.046       .  S
N444        H448   1.045       .  S
C453        C454   1.411       .  A
C453        C458   1.403   1_554  A
C454        C455   1.404       .  A
C454        N459   1.437       .  S
C455        C456   1.404       .  A
C455        H460   1.084       .  S
C456        C461   1.482       .  S
C456        C457   1.411   1_554  A
C457        C458   1.402       .  A
C457        N462   1.438       .  S
C458        H463   1.084       .  S
N459        H479   1.045       .  S
N459        H480   1.046       .  S
C461        C464   1.404   1_554  A
C461        C468   1.412       .  A
N462        H477   1.046       .  S
N462        H478   1.045       .  S
C464        C465   1.404       .  A
C464        H469   1.084       .  S
C465        C466   1.410   1_556  A
C465        N470   1.438       .  S
C466        C467   1.399       .  A
C467        C468   1.402       .  A
C467        H471   1.084       .  S
C468        N472   1.438       .  S
N470        H473   1.046       .  S
N470        H474   1.045       .  S
N472        H475   1.046       .  S
N472        H476   1.046       .  S
C481        C482   1.412   1_545  A
C481        C486   1.405       .  A
C482        C483   1.412       .  A
C482        N487   1.437       .  S
C483        C484   1.406       .  A
C483        H488   1.083       .  S
C484        C489   1.498       .  S
C484        C485   1.413   1_565  A
C485        C486   1.412       .  A
C485        N490   1.437       .  S
C486        H491   1.083       .  S
N487        H507   1.046       .  S
N487        H508   1.045       .  S
C489        C492   1.406   1_565  A
C489        C496   1.414       .  A
N490        H505   1.045       .  S
N490        H506   1.046       .  S
C492        C493   1.410       .  A
C492        H497   1.083       .  S
C493        C494   1.411   1_545  A
C493        N498   1.437       .  S
C494        C495   1.405       .  A
C495        C496   1.413       .  A
C495        H499   1.083       .  S
C496        N500   1.437       .  S
N498        H501   1.045       .  S
N498        H502   1.045       .  S
N500        H503   1.046       .  S
N500        H504   1.046       .  S
C509        C510   1.412       .  A
C509        C514   1.405   1_545  A
C510        C511   1.411       .  A
C510        N515   1.438       .  S
C511        C512   1.406       .  A
C511        H516   1.083       .  S
C512        C517   1.500       .  S
C512        C513   1.414   1_545  A
C513        C514   1.411       .  A
C513        N518   1.437       .  S
C514        H519   1.084       .  S
N515        H535   1.045       .  S
N515        H536   1.046       .  S
C517        C520   1.407   1_545  A
C517        C524   1.414       .  A
N518        H533   1.046       .  S
N518        H534   1.046       .  S
C520        C521   1.412       .  A
C520        H525   1.083       .  S
C521        C522   1.411       .  A
C521        N526   1.437       .  S
C522        C523   1.404   1_565  A
C523        C524   1.411       .  A
C523        H527   1.084       .  S
C524        N528   1.437       .  S
N526        H529   1.046       .  S
N526        H530   1.045       .  S
N528        H531   1.046       .  S
N528        H532   1.046       .  S
C537        C538   1.406       .  A
C537        C542   1.402   1_455  A
C538        C539   1.399       .  A
C538        N543   1.432       .  S
C539        C540   1.401       .  A
C539        H544   1.084       .  S
C540        C545   1.473       .  S
C540        C541   1.409   1_455  A
C541        C542   1.403       .  A
C541        N546   1.438       .  S
C542        H547   1.084       .  S
N543        H563   1.045       .  S
N543        H564   1.046       .  S
C545        C548   1.401       .  A
C545        C552   1.407       .  A
N546        H561   1.046       .  S
N546        H562   1.046       .  S
C548        C549   1.399       .  A
C548        H553   1.084       .  S
C549        C550   1.416       .  A
C549        N554   1.439       .  S
C550        C551   1.402       .  A
C551        C552   1.401       .  A
C551        H555   1.084       .  S
C552        N556   1.438       .  S
N554        H557   1.045       .  S
N554        H558   1.043       .  S
N556        H559   1.046   1_455  S
N556        H560   1.046   1_455  S
C565        C566   1.407       .  A
C565        C570   1.404   1_655  A
C566        C567   1.401       .  A
C566        N571   1.432       .  S
C567        C568   1.402       .  A
C567        H572   1.084       .  S
C568        C573   1.482       .  S
C568        C569   1.412   1_655  A
C569        C570   1.405       .  A
C569        N574   1.438       .  S
C570        H575   1.084       .  S
N571        H591   1.046       .  S
N571        H592   1.045       .  S
C573        C576   1.404       .  A
C573        C580   1.413   1_655  A
N574        H589   1.046       .  S
N574        H590   1.045       .  S
C576        C577   1.401       .  A
C576        H581   1.084       .  S
C577        C578   1.404       .  A
C577        N582   1.432       .  S
C578        C579   1.401   1_655  A
C579        C580   1.405       .  A
C579        H583   1.084       .  S
C580        N584   1.438       .  S
N582        H585   1.045       .  S
N582        H586   1.045       .  S
N584        H587   1.046       .  S
N584        H588   1.045       .  S
C593        C594   1.417   1_655  A
C593        C598   1.403       .  A
C594        C595   1.397       .  A
C594        N599   1.438       .  S
C595        C596   1.399   1_455  A
C595        H600   1.084       .  S
C596        C601   1.470       .  S
C596        C597   1.408       .  A
C597        C598   1.401       .  A
C597        N602   1.438   1_556  S
C598        H603   1.084   1_556  S
N599        H619   1.043       .  S
N599        H620   1.046       .  S
C601        C604   1.399       .  A
C601        C608   1.405   1_655  A
N602        H617   1.046       .  S
N602        H618   1.046       .  S
C604        C605   1.406       .  A
C604        H609   1.084       .  S
C605        C606   1.419       .  A
C605        N610   1.438       .  S
C606        C607   1.407   1_655  A
C607        C608   1.398       .  A
C607        H611   1.083       .  S
C608        N612   1.439       .  S
N610        H613   1.046       .  S
N610        H614   1.045       .  S
N612        H615   1.045   1_556  S
N612        H616   1.046   1_556  S
C621        C622   1.409       .  A
C621        C626   1.400   1_554  A
C622        C623   1.408       .  A
C622        N627   1.437       .  S
C623        C624   1.403       .  A
C623        H628   1.084       .  S
C624        C629   1.478       .  S
C624        C625   1.409   1_554  A
C625        C626   1.402       .  A
C625        N630   1.437       .  S
C626        H631   1.084       .  S
N627        H647   1.046       .  S
N627        H648   1.046       .  S
C629        C632   1.399   1_455  A
C629        C636   1.408       .  A
N630        H645   1.046   1_455  S
N630        H646   1.046       .  S
C632        C633   1.403       .  A
C632        H637   1.084       .  S
C633        C634   1.415       .  A
C633        N638   1.438       .  S
C634        C635   1.408   1_655  A
C635        C636   1.409       .  A
C635        H639   1.083       .  S
C636        N640   1.437       .  S
N638        H641   1.046       .  S
N638        H642   1.046       .  S
N640        H643   1.046       .  S
N640        H644   1.046   1_554  S
C649        C650   1.414       .  A
C649        C654   1.405   1_566  A
C650        C651   1.417       .  A
C650        N655   1.437       .  S
C651        C652   1.408       .  A
C651        H656   1.083       .  S
C652        C657   1.511       .  S
C652        C653   1.417   1_566  A
C653        C654   1.414       .  A
C653        N658   1.437       .  S
C654        H659   1.083       .  S
N655        H675   1.046   1_556  S
N655        H676   1.045       .  S
C657        C660   1.403   1_565  A
C657        C664   1.417   1_556  A
N658        H673   1.046       .  S
N658        H674   1.046       .  S
C660        C661   1.411       .  A
C660        H665   1.084       .  S
C661        C662   1.420       .  A
C661        N666   1.438       .  S
C662        C663   1.410   1_546  A
C663        C664   1.422       .  A
C663        H667   1.083       .  S
C664        N668   1.437       .  S
N666        H669   1.046       .  S
N666        H670   1.046       .  S
N668        H671   1.045       .  S
N668        H672   1.046       .  S
C677        C678   1.419       .  A
C677        C682   1.409   1_564  A
C678        C679   1.413       .  A
C678        N683   1.438       .  S
C679        C680   1.402       .  A
C679        H684   1.084       .  S
C680        C685   1.504   1_565  S
C680        C681   1.415   1_564  A
C681        C682   1.421       .  A
C681        N686   1.437       .  S
C682        H687   1.083       .  S
N683        H703   1.046       .  S
N683        H704   1.046       .  S
C685        C688   1.405   1_544  A
C685        C692   1.414       .  A
N686        H701   1.046       .  S
N686        H702   1.045       .  S
C688        C689   1.415       .  A
C688        H693   1.083       .  S
C689        C690   1.416   1_566  A
C689        N694   1.437       .  S
C690        C691   1.410       .  A
C691        C692   1.418       .  A
C691        H695   1.083       .  S
C692        N696   1.437       .  S
N694        H697   1.045       .  S
N694        H698   1.045       .  S
N696        H699   1.046       .  S
N696        H700   1.044       .  S
C705        C706   1.420   1_545  A
C705        C710   1.407       .  A
C706        C707   1.405       .  A
C706        N711   1.438   1_655  S
C707        C708   1.398       .  A
C707        H712   1.084   1_655  S
C708        C713   1.471       .  S
C708        C709   1.405   1_565  A
C709        C710   1.400       .  A
C709        N714   1.438       .  S
C710        H715   1.083       .  S
N711        H731   1.045   1_455  S
N711        H732   1.046       .  S
C713        C716   1.400       .  A
C713        C720   1.409   1_665  A
N714        H729   1.046       .  S
N714        H730   1.046       .  S
C716        C717   1.401       .  A
C716        H721   1.084       .  S
C717        C718   1.408   1_565  A
C717        N722   1.437       .  S
C718        C719   1.401   1_655  A
C719        C720   1.403       .  A
C719        H723   1.084       .  S
C720        N724   1.438       .  S
N722        H725   1.046       .  S
N722        H726   1.045   1_565  S
N724        H727   1.046       .  S
N724        H728   1.045       .  S
C733        C734   1.409       .  A
C733        C738   1.401   1_455  A
C734        C735   1.404       .  A
C734        N739   1.437   1_545  S
C735        C736   1.401       .  A
C735        H740   1.084   1_545  S
C736        C741   1.475       .  S
C736        C737   1.409   1_455  A
C737        C738   1.403       .  A
C737        N742   1.437       .  S
C738        H743   1.084       .  S
N739        H759   1.045       .  S
N739        H760   1.046       .  S
C741        C744   1.398   1_445  A
C741        C748   1.407       .  A
N742        H757   1.046       .  S
N742        H758   1.046       .  S
C744        C745   1.401       .  A
C744        H749   1.084       .  S
C745        C746   1.416   1_655  A
C745        N750   1.439       .  S
C746        C747   1.405   1_565  A
C747        C748   1.407       .  A
C747        H751   1.084       .  S
C748        N752   1.437       .  S
N750        H753   1.046       .  S
N750        H754   1.045   1_655  S
N752        H755   1.046       .  S
N752        H756   1.046       .  S
