geometry optimzed in LAMMPS
_audit_creation_date              2020-12-01 
_audit_creation_method            'lammps2cif' 
_symmetry_space_group_name_H-M    'P1' 
_symmetry_Int_Tables_number       1 
_symmetry_cell_setting            triclinic 
loop_ 
_symmetry_equiv_pos_as_xyz 
  x,y,z 
_cell_length_a                    41.89153575 
_cell_length_b                    43.74469283431302 
_cell_length_c                    36.64463377810927 
_cell_angle_alpha                 89.97717000273315 
_cell_angle_beta                  89.87459620501946 
_cell_angle_gamma                 89.8864446038956 
loop_ 
_atom_site_label 
_atom_site_type_symbol 
_atom_site_fract_x 
_atom_site_fract_y 
_atom_site_fract_z 
_atom_site_charge 
O1          O  0.47028879  0.21386257  0.53356932    -0.74000
O2          O  0.47402026  0.27685356  0.46083232    -0.74100
O3          O  0.47305801  0.21507313  0.45941238    -0.74100
O4          O  0.47125951  0.27597999  0.53487215    -0.74200
O5          O  0.02440699  0.27549736  0.53672597    -0.74100
O6          O  0.02616502  0.21357196  0.46265302    -0.74100
O7          O  0.02716964  0.27556769  0.46311237    -0.74100
O8          O  0.02330028  0.21339258  0.53653502    -0.74100
Ni9        Ni  0.47025670  0.24544675  0.49712462     1.25400
Ni10       Ni  0.02712666  0.24444043  0.49986071     1.25400
C11         C  0.99616800  0.20317247  0.54718913     0.88100
C12         C  0.50126817  0.28673093  0.45016919     0.88100
C13         C  0.49993996  0.20441110  0.44845601     0.88100
C14         C  0.99757369  0.28606302  0.54797906     0.88300
C15         C  0.50415556  0.46800385  0.27644070     0.86900
C16         C  0.47545121  0.47048335  0.25041079    -0.53400
C17         C  0.47402481  0.99719103  0.23092153     0.09800
C18         C  0.50204820  0.01893339  0.23870786     0.20800
C19         C  0.03324234  0.47320613  0.25120032    -0.54100
C20         C  0.03185019  0.99947305  0.23117226     0.09900
C21         C  0.50264731  0.99713592  0.29981747    -0.53600
C22         C  0.00150004  0.02359113  0.28017147     0.10500
H23         H  0.45771639  0.45255532  0.24771556     0.15000
H24         H  0.50117224  0.04078307  0.22334783     0.00700
H25         H  0.05328273  0.45790585  0.24800809     0.15300
H26         H  0.50257405  0.99688149  0.32946166     0.15100
C27         C  0.00275634  0.46553661  0.72514635     0.86900
C28         C  0.03137319  0.46938663  0.75109685    -0.53400
C29         C  0.03152484  0.99644031  0.76962024     0.09800
C30         C  0.00317117  0.01770873  0.76044122     0.20800
C31         C  0.47352347  0.47079676  0.74990146    -0.54100
C32         C  0.47352007  0.99800285  0.76843698     0.09900
C33         C  0.00446303  0.99391886  0.70064697    -0.53600
C34         C  0.50368155  0.02140334  0.71847178     0.10500
H35         H  0.04989535  0.45261231  0.75580341     0.15000
H36         H  0.00301706  0.03957109  0.77550684     0.00700
H37         H  0.45451784  0.45410461  0.75271041     0.15300
H38         H  0.00534958  0.99215449  0.67109850     0.15100
O39         O  0.28429195  0.04847176  0.96240089    -0.74000
O40         O  0.22054245  0.05253307  0.03775828    -0.74100
O41         O  0.28544085  0.05032544  0.03671214    -0.74100
O42         O  0.21912413  0.05035005  0.96412507    -0.74200
O43         O  0.21800579  0.49946436  0.96649373    -0.74100
O44         O  0.28380704  0.49951811  0.03806077    -0.74100
O45         O  0.21968361  0.50156419  0.04002726    -0.74100
O46         O  0.28254723  0.49774042  0.96443491    -0.74100
Ni47       Ni  0.25247125  0.05229265  0.00012832     1.25400
Ni48       Ni  0.25097636  0.49783476  0.00226788     1.25400
C49         C  0.29407771  0.02236189  0.95091531     0.88100
C50         C  0.20971854  0.02761007  0.05127189     0.88100
C51         C  0.29537669  0.02475962  0.04965847     0.88100
C52         C  0.20726352  0.02474465  0.95387538     0.88300
C53         C  0.10019445  0.53308451  0.82026732    -0.01600
C54         C  0.10279587  0.01421818  0.85132014     0.07000
C55         C  0.08118281  0.99005584  0.85600151    -0.07600
C56         C  0.05761576  0.98417916  0.82991183     0.04400
C57         C  0.05539229  0.00273827  0.79846112    -0.14800
C58         C  0.07696751  0.52682884  0.79384168    -0.08100
C59         C  0.12970620  0.01741378  0.87735048     0.05400
C60         C  0.13133178  0.04294425  0.90047384    -0.09300
C61         C  0.15657762  0.04624004  0.92532912     0.00300
C62         C  0.18079166  0.02367556  0.92709542     0.00200
C63         C  0.17900983  0.49827581  0.90375786    -0.12800
C64         C  0.15390848  0.49504886  0.87904042     0.00700
C65         C  0.15615268  0.07211926  0.94978000     0.40000
C66         C  0.15377319  0.46880138  0.85514401     0.36600
C67         C  0.12184240  0.55823915  0.81436045     0.36300
C68         C  0.03596911  0.95901632  0.83597999     0.37100
N69         N  0.15573636  0.09280975  0.96945441    -0.43700
N70         N  0.15359198  0.44780715  0.83594568    -0.45600
N71         N  0.51864232  0.93881796  0.84069024    -0.41500
N72         N  0.13911315  0.57851329  0.80986714    -0.42900
H73         H  0.07648730  0.53996637  0.76886001     0.13200
H74         H  0.08315049  0.97543060  0.87980564     0.09700
H75         H  0.11262055  0.06009022  0.89938952     0.10800
H76         H  0.19743970  0.48083808  0.90467901     0.16600
C77         C  0.38934171  0.50632131  0.80560590    -0.01600
C78         C  0.39453348  0.01786643  0.84096595     0.07000
C79         C  0.42565115  0.02534386  0.85161744    -0.07600
C80         C  0.45170716  0.02023954  0.82825758     0.04400
C81         C  0.44678503  0.00706324  0.79335784    -0.14800
C82         C  0.41527959  0.50099802  0.78226692    -0.08100
C83         C  0.36824946  0.01972936  0.86822403     0.05400
C84         C  0.35461927  0.49248376  0.88078067    -0.09300
C85         C  0.33040708  0.49262116  0.90717801     0.00300
C86         C  0.31927174  0.02073777  0.92193279     0.00200
C87         C  0.33294886  0.04808923  0.90884765    -0.12800
C88         C  0.35718225  0.04775879  0.88232336     0.00700
C89         C  0.31774936  0.46334591  0.91820015     0.40000
C90         C  0.36990762  0.07644295  0.86940696     0.36600
C91         C  0.35752580  0.49983902  0.79273452     0.36300
C92         C  0.48296807  0.02770117  0.84198211     0.37100
N93         N  0.30772558  0.43978894  0.92685315    -0.43700
N94         N  0.38006729  0.09941925  0.85893704    -0.44200
N95         N  0.00755115  0.03444344  0.85382048    -0.41500
N96         N  0.33196979  0.49479104  0.78247683    -0.42900
H97         H  0.41087559  0.49179010  0.75527246     0.13200
H98         H  0.42969369  0.03428232  0.87883015     0.09700
H99         H  0.36318788  0.47086532  0.86999382     0.10800
H100        H  0.32483034  0.06991962  0.91938449     0.16600
C101        C  0.09479105  0.04311685  0.17835346    -0.01600
C102        C  0.10530514  0.02087209  0.15319008     0.07000
C103        C  0.09021792  0.99234147  0.15218778    -0.07600
C104        C  0.06562475  0.48532555  0.17654637     0.04400
C105        C  0.05609749  0.00700491  0.20304881    -0.14800
C106        C  0.07018490  0.03608215  0.20293940    -0.08100
C107        C  0.13310289  0.02580252  0.12887250     0.05400
C108        C  0.16062123  0.50823585  0.13490038    -0.09300
C109        C  0.18639681  0.50947210  0.11068854     0.00300
C110        C  0.18482508  0.02859562  0.07973336     0.00200
C111        C  0.15786042  0.04720336  0.07450753    -0.12800
C112        C  0.13188377  0.04571632  0.09862970     0.00700
C113        C  0.21435099  0.49121502  0.11843323     0.40000
C114        C  0.10364286  0.06347580  0.09076336     0.36600
C115        C  0.10963055  0.07281207  0.18026402     0.36300
C116        C  0.04990012  0.45611507  0.17294100     0.37100
N117        N  0.23681743  0.47670419  0.12467334    -0.43700
N118        N  0.08097207  0.07767643  0.08448771    -0.44200
N119        N  0.53723913  0.43275128  0.17007212    -0.41500
N120        N  0.12147896  0.09665406  0.18168191    -0.42900
H121        H  0.06258750  0.05302603  0.22267564     0.13200
H122        H  0.09786108  0.47540941  0.13235623     0.09700
H123        H  0.16168239  0.49308084  0.15831363     0.10800
H124        H  0.15645868  0.06180121  0.05062498     0.16600
C125        C  0.35817490  0.99183574  0.11266736    -0.01600
C126        C  0.36866791  0.01766390  0.13200042     0.07000
C127        C  0.35503605  0.04627669  0.12461079    -0.07600
C128        C  0.33097501  0.04943351  0.09824371     0.04400
C129        C  0.32061825  0.02352531  0.07826266    -0.14800
C130        C  0.33452624  0.99491501  0.08613192    -0.08100
C131        C  0.39481687  0.01509610  0.15892617     0.05400
C132        C  0.42573280  0.02307822  0.14807331    -0.09300
C133        C  0.45190141  0.01768023  0.17090204     0.00300
C134        C  0.44715835  0.00443007  0.20576115     0.00200
C135        C  0.41587539  0.49721421  0.21683936    -0.12800
C136        C  0.38985474  0.50223565  0.19369289     0.00700
C137        C  0.48319349  0.02428127  0.15645899     0.40000
C138        C  0.35834045  0.49356788  0.20584663     0.36600
C139        C  0.37176458  0.46194151  0.11922569     0.36300
C140        C  0.31705305  0.07933773  0.09316110     0.37100
N141        N  0.50786411  0.02992474  0.14392798    -0.43700
N142        N  0.33308398  0.48653359  0.21551230    -0.44200
N143        N  0.30589973  0.10335167  0.08934574    -0.41500
N144        N  0.38262374  0.43802431  0.12462870    -0.42900
H145        H  0.32711761  0.97467431  0.07135975     0.13200
H146        H  0.36313337  0.06614756  0.13964791     0.09700
H147        H  0.42953890  0.03248580  0.12101065     0.10800
H148        H  0.41172212  0.48741834  0.24361901     0.16600
C149        C  0.47980057  0.33620216  0.36899144    -0.01600
C150        C  0.50319147  0.35931142  0.37069624     0.07000
C151        C  0.02636547  0.35811377  0.39822978    -0.07600
C152        C  0.02646661  0.33450909  0.42401232     0.04400
C153        C  0.50275704  0.31156950  0.42272717    -0.14800
C154        C  0.47960349  0.31274119  0.39505558    -0.08100
C155        C  0.00328377  0.38564728  0.34504125     0.05400
C156        C  0.47735955  0.40586667  0.34507349    -0.09300
C157        C  0.47725285  0.43199784  0.32296282     0.00300
C158        C  0.50366889  0.43865555  0.29983988     0.00200
C159        C  0.02950016  0.41773953  0.29986924    -0.12800
C160        C  0.02943715  0.39164897  0.32203319     0.00700
C161        C  0.44952944  0.45158527  0.32498940     0.40000
C162        C  0.05650396  0.37114798  0.32044327     0.36600
C163        C  0.45624521  0.33575827  0.34029060     0.36300
C164        C  0.05026161  0.33530181  0.45246317     0.37100
N165        N  0.42708420  0.46696894  0.32672611    -0.43700
N166        N  0.07819470  0.35475255  0.31921028    -0.44200
N167        N  0.06930661  0.33594136  0.47528017    -0.41500
N168        N  0.43745101  0.33540935  0.31719607    -0.42900
H169        H  0.46149129  0.29510436  0.39355847     0.13200
H170        H  0.04414299  0.37605279  0.39994345     0.09700
H171        H  0.45725194  0.40145035  0.36301145     0.10800
H172        H  0.05034068  0.42117588  0.28325340     0.16600
C173        C  0.02846252  0.09916845  0.31887287    -0.01600
C174        C  0.00160872  0.10794193  0.33984568     0.07000
C175        C  0.47337666  0.09084520  0.33697548    -0.07600
C176        C  0.47239882  0.06417179  0.31586379     0.04400
C177        C  0.00016416  0.05392780  0.29786811    -0.14800
C178        C  0.02770970  0.07201207  0.29861341    -0.08100
C179        C  0.00277573  0.13367413  0.36644911     0.05400
C180        C  0.48098510  0.15794559  0.36314376    -0.09300
C181        C  0.47989995  0.18144639  0.38918200     0.00300
C182        C  0.50084075  0.18081953  0.41939212     0.00200
C183        C  0.02300024  0.15683494  0.42228378    -0.12800
C184        C  0.02389154  0.13323604  0.39647783     0.00700
C185        C  0.45786944  0.20643314  0.38356632     0.40000
C186        C  0.04571368  0.10811806  0.40237468     0.36600
C187        C  0.05695060  0.11765971  0.31766332     0.36300
C188        C  0.44261724  0.04787786  0.31261010     0.37100
N189        N  0.44033576  0.22654400  0.37898618    -0.43700
N190        N  0.06326197  0.08802038  0.40695054    -0.44200
N191        N  0.41859004  0.53514408  0.30961009    -0.41500
N192        N  0.07977185  0.13249831  0.31658151    -0.42900
H193        H  0.04892516  0.06449105  0.28421263     0.13200
H194        H  0.45231108  0.09789978  0.35205598     0.09700
H195        H  0.46472904  0.15847527  0.34015293     0.10800
H196        H  0.03905219  0.15600645  0.44545437     0.16600
C197        C  0.52296907  0.35633953  0.60090053    -0.01600
C198        C  0.99861268  0.35916597  0.62737220     0.07000
C199        C  0.97353742  0.33793515  0.62748916    -0.07600
C200        C  0.97268077  0.31387866  0.60213348     0.04400
C201        C  0.99729209  0.31080253  0.57585171    -0.14800
C202        C  0.52228607  0.33220858  0.57576642    -0.08100
C203        C  0.99867097  0.38443882  0.65466937     0.05400
C204        C  0.47467809  0.40670746  0.65326903    -0.09300
C205        C  0.47508152  0.43202150  0.67674804     0.00300
C206        C  0.00031230  0.43593267  0.70232071     0.00200
C207        C  0.02331135  0.41232597  0.70480473    -0.12800
C208        C  0.02252384  0.38686360  0.68153270     0.00700
C209        C  0.44937952  0.45392628  0.67338351     0.40000
C210        C  0.04628981  0.36319261  0.68601230     0.36600
C211        C  0.54838922  0.37849077  0.59826105     0.36300
C212        C  0.94693235  0.29208909  0.60466811     0.37100
N213        N  0.42875745  0.47143256  0.67078332    -0.43700
N214        N  0.06524881  0.34415630  0.68959201    -0.44200
N215        N  0.92632981  0.27458722  0.60678889    -0.41500
N216        N  0.56873509  0.39626437  0.59614360    -0.42900
H217        H  0.54108353  0.33047462  0.55546411     0.13200
H218        H  0.95473898  0.34000201  0.64774394     0.09700
H219        H  0.45583901  0.40461323  0.63316209     0.10800
H220        H  0.04229496  0.41316792  0.72452798     0.16600
C221        C  0.02415822  0.13840318  0.60833101    -0.01600
C222        C  0.99570258  0.12904706  0.62555845     0.07000
C223        C  0.46727812  0.14475986  0.61797526    -0.07600
C224        C  0.46670974  0.16920900  0.59318346     0.04400
C225        C  0.49515570  0.17827231  0.57508754    -0.14800
C226        C  0.02368245  0.16268823  0.58344254    -0.08100
C227        C  0.49518978  0.10253202  0.65099043     0.05400
C228        C  0.01204788  0.10418102  0.68391576    -0.09300
C229        C  0.01414170  0.07891487  0.70744609     0.00300
C230        C  0.49963961  0.05080718  0.69765287     0.00200
C231        C  0.48107706  0.05012294  0.66553829    -0.12800
C232        C  0.47886455  0.07542790  0.64233854     0.00700
C233        C  0.03125255  0.08338789  0.74104260     0.40000
C234        C  0.46057978  0.07260862  0.60914476     0.36600
C235        C  0.05402701  0.12283055  0.61495619     0.36300
C236        C  0.43663417  0.18467140  0.58760550     0.37100
N237        N  0.04442350  0.08879178  0.76799462    -0.43700
N238        N  0.44585552  0.07031702  0.58260583    -0.44200
N239        N  0.41246359  0.19700917  0.58332874    -0.41500
N240        N  0.07795279  0.11037150  0.62034663    -0.42900
H241        H  0.04578820  0.16909880  0.57006106     0.13200
H242        H  0.44541183  0.13784798  0.63154944     0.09700
H243        H  0.02390452  0.12536841  0.69109237     0.10800
H244        H  0.46828966  0.02953110  0.65813373     0.16600
O245        O  0.47028249  0.71385920  0.53357594    -0.74000
O246        O  0.47400471  0.77684601  0.46083115    -0.74100
O247        O  0.47305476  0.71506524  0.45941860    -0.74100
O248        O  0.47124111  0.77597749  0.53487131    -0.74200
O249        O  0.02438782  0.77550388  0.53672743    -0.74100
O250        O  0.02616228  0.71357358  0.46266159    -0.74100
O251        O  0.02715404  0.77556958  0.46311408    -0.74100
O252        O  0.02329319  0.71339859  0.53654436    -0.74100
Ni253      Ni  0.47024583  0.74544094  0.49712732     1.25400
Ni254      Ni  0.02711547  0.74444469  0.49986622     1.25400
C255        C  0.99616237  0.70317438  0.54719820     0.88100
C256        C  0.50125124  0.78672748  0.45016853     0.88100
C257        C  0.49993910  0.70440798  0.44846332     0.88100
C258        C  0.99755219  0.78606663  0.54797698     0.88300
C259        C  0.50414812  0.96800108  0.27643570     0.86900
C260        C  0.47544396  0.97048533  0.25040592    -0.53400
C261        C  0.47402800  0.49718835  0.23092519     0.09800
C262        C  0.50204852  0.51893468  0.23871112     0.20800
C263        C  0.03323571  0.97320128  0.25119503    -0.54100
C264        C  0.03185302  0.49947669  0.23117605     0.09900
C265        C  0.50265077  0.49713864  0.29982139    -0.53600
C266        C  0.00150067  0.52359291  0.28017532     0.10500
H267        H  0.45770531  0.95256072  0.24771111     0.15000
H268        H  0.50117015  0.54078415  0.22335103     0.00700
H269        H  0.05327539  0.95789982  0.24800465     0.15300
H270        H  0.50257867  0.49688474  0.32946562     0.15100
C271        C  0.00274894  0.96554277  0.72513757     0.86900
C272        C  0.03137032  0.96939394  0.75108173    -0.53400
C273        C  0.03152578  0.49643266  0.76963538     0.09800
C274        C  0.00317484  0.51770248  0.76045044     0.20800
C275        C  0.47352115  0.97080167  0.74989897    -0.54100
C276        C  0.47352161  0.49799771  0.76844018     0.09900
C277        C  0.00447617  0.49391307  0.70065637    -0.53600
C278        C  0.50369233  0.52139740  0.71848159     0.10500
H279        H  0.04989222  0.95261891  0.75578646     0.15000
H280        H  0.00301898  0.53956407  0.77551762     0.00700
H281        H  0.45451756  0.95410790  0.75271245     0.15300
H282        H  0.00536824  0.49214839  0.67110817     0.15100
O283        O  0.28429669  0.54847118  0.96240562    -0.74000
O284        O  0.22054522  0.55252687  0.03776136    -0.74100
O285        O  0.28544410  0.55031762  0.03671700    -0.74100
O286        O  0.21912973  0.55035169  0.96412845    -0.74200
O287        O  0.21800129  0.99946316  0.96649798    -0.74100
O288        O  0.28380552  0.99952618  0.03806239    -0.74100
O289        O  0.21968263  0.00157063  0.04003154    -0.74100
O290        O  0.28254373  0.99774120  0.96443658    -0.74100
Ni291      Ni  0.25247547  0.55228945  0.00013288     1.25400
Ni292      Ni  0.25097377  0.99783829  0.00227083     1.25400
C293        C  0.29408101  0.52236205  0.95091595     0.88100
C294        C  0.20971914  0.52760278  0.05126990     0.88100
C295        C  0.29537938  0.52475021  0.04965930     0.88100
C296        C  0.20726966  0.52474749  0.95387420     0.88300
C297        C  0.10020256  0.03307699  0.82025439    -0.01600
C298        C  0.10280024  0.51422029  0.85132668     0.07000
C299        C  0.08119797  0.49004893  0.85600595    -0.07600
C300        C  0.05762924  0.48416864  0.82991968     0.04400
C301        C  0.05539401  0.50273293  0.79847426    -0.14800
C302        C  0.07697632  0.02682537  0.79382607    -0.08100
C303        C  0.12971391  0.51741930  0.87735080     0.05400
C304        C  0.13133183  0.54294294  0.90048551    -0.09300
C305        C  0.15657880  0.54623929  0.92533884     0.00300
C306        C  0.18080021  0.52368158  0.92709246     0.00200
C307        C  0.17899210  0.99826150  0.90377427    -0.12800
C308        C  0.15389095  0.99503436  0.87905609     0.00700
C309        C  0.15614786  0.57211110  0.94980081     0.40000
C310        C  0.15374628  0.96877726  0.85517490     0.36600
C311        C  0.12186289  0.05822129  0.81434382     0.36300
C312        C  0.03599311  0.45899727  0.83598660     0.37100
N313        N  0.15572706  0.59279589  0.96948366    -0.43700
N314        N  0.15355730  0.94777509  0.83598909    -0.45600
N315        N  0.51867489  0.43879126  0.84069739    -0.41500
N316        N  0.13914399  0.07848691  0.80984763    -0.42900
H317        H  0.07650428  0.03995917  0.76884122     0.13200
H318        H  0.08317557  0.47541971  0.87980554     0.09700
H319        H  0.11261368  0.56008248  0.89941197     0.10800
H320        H  0.19741503  0.98081749  0.90470569     0.16600
C321        C  0.38934355  0.00630792  0.80561713    -0.01600
C322        C  0.39453074  0.51787050  0.84095944     0.07000
C323        C  0.42564944  0.52533584  0.85161864    -0.07600
C324        C  0.45170676  0.52022847  0.82826199     0.04400
C325        C  0.44678530  0.50705989  0.79335806    -0.14800
C326        C  0.41527962  0.00098967  0.78227444    -0.08100
C327        C  0.36824494  0.51973347  0.86821544     0.05400
C328        C  0.35463402  0.99247931  0.88080272    -0.09300
C329        C  0.33041903  0.99261777  0.90719670     0.00300
C330        C  0.31927240  0.52073966  0.92193046     0.00200
C331        C  0.33295894  0.54809100  0.90885816    -0.12800
C332        C  0.35719027  0.54776165  0.88233140     0.00700
C333        C  0.31777137  0.96334203  0.91823210     0.40000
C334        C  0.36992741  0.57644606  0.86943108     0.36600
C335        C  0.35752848  0.99980914  0.79275485     0.36300
C336        C  0.48296799  0.52767896  0.84199408     0.37100
N337        N  0.30775543  0.93978462  0.92689535    -0.43700
N338        N  0.38009651  0.59942278  0.85897453    -0.44200
N339        N  0.00755073  0.53441254  0.85383944    -0.41500
N340        N  0.33197317  0.99474711  0.78250480    -0.42900
H341        H  0.41087433  0.99177562  0.75528326     0.13200
H342        H  0.42969146  0.53426709  0.87883485     0.09700
H343        H  0.36321171  0.97086002  0.87002766     0.10800
H344        H  0.32485026  0.56992031  0.91940801     0.16600
C345        C  0.09478877  0.54311388  0.17834259    -0.01600
C346        C  0.10529969  0.52086613  0.15318122     0.07000
C347        C  0.09021021  0.49233657  0.15218333    -0.07600
C348        C  0.06563100  0.98532674  0.17654748     0.04400
C349        C  0.05609585  0.50700617  0.20304705    -0.14800
C350        C  0.07018461  0.53608266  0.20293238    -0.08100
C351        C  0.13309694  0.52579262  0.12886207     0.05400
C352        C  0.16062727  0.00824517  0.13490800    -0.09300
C353        C  0.18640153  0.00948174  0.11069433     0.00300
C354        C  0.18482239  0.52858617  0.07972762     0.00200
C355        C  0.15785666  0.54719169  0.07449759    -0.12800
C356        C  0.13187815  0.54570388  0.09861701     0.00700
C357        C  0.21435662  0.99122543  0.11843744     0.40000
C358        C  0.10363557  0.56345942  0.09074566     0.36600
C359        C  0.10962968  0.57280871  0.18024720     0.36300
C360        C  0.04990936  0.95611524  0.17293735     0.37100
N361        N  0.23682398  0.97671560  0.12467662    -0.43700
N362        N  0.08096298  0.57765614  0.08446603    -0.44200
N363        N  0.53725375  0.93274885  0.17006678    -0.41500
N364        N  0.12147910  0.59665044  0.18166027    -0.42900
H365        H  0.06259005  0.55302854  0.22266747     0.13200
H366        H  0.09787150  0.97541640  0.13235948     0.09700
H367        H  0.16168931  0.99308906  0.15832019     0.10800
H368        H  0.15645584  0.56178846  0.05061405     0.16600
C369        C  0.35819561  0.49182277  0.11264080    -0.01600
C370        C  0.36867463  0.51764573  0.13199358     0.07000
C371        C  0.35502944  0.54625630  0.12462409    -0.07600
C372        C  0.33096798  0.54941588  0.09825828     0.04400
C373        C  0.32062272  0.52351274  0.07826040    -0.14800
C374        C  0.33454479  0.49490469  0.08610836    -0.08100
C375        C  0.39482218  0.51507625  0.15892028     0.05400
C376        C  0.42573609  0.52307123  0.14807433    -0.09300
C377        C  0.45190406  0.51767776  0.17090527     0.00300
C378        C  0.44716195  0.50442099  0.20576119     0.00200
C379        C  0.41587042  0.99723759  0.21684693    -0.12800
C380        C  0.38984858  0.00226586  0.19370424     0.00700
C381        C  0.48319487  0.52429055  0.15646653     0.40000
C382        C  0.35833174  0.99361643  0.20586806     0.36600
C383        C  0.37172669  0.96195106  0.11927625     0.36300
C384        C  0.31703385  0.57931711  0.09319389     0.37100
N385        N  0.50786407  0.52994363  0.14393809    -0.43700
N386        N  0.33307309  0.98659750  0.21554231    -0.44200
N387        N  0.30587134  0.60332870  0.08939249    -0.41500
N388        N  0.38257155  0.93803112  0.12469933    -0.42900
H389        H  0.32714612  0.47466842  0.07132092     0.13200
H390        H  0.36311700  0.56612321  0.13967556     0.09700
H391        H  0.42954151  0.53248597  0.12101508     0.10800
H392        H  0.41171711  0.98744774  0.24362974     0.16600
C393        C  0.47978235  0.83619299  0.36898355    -0.01600
C394        C  0.50317002  0.85930530  0.37068896     0.07000
C395        C  0.02634140  0.85811183  0.39822419    -0.07600
C396        C  0.02644307  0.83450901  0.42400941     0.04400
C397        C  0.50273734  0.81156564  0.42272458    -0.14800
C398        C  0.47958619  0.81273301  0.39504978    -0.08100
C399        C  0.00326287  0.88563963  0.34502953     0.05400
C400        C  0.47734201  0.90586306  0.34506460    -0.09300
C401        C  0.47724005  0.93199636  0.32295662     0.00300
C402        C  0.50365673  0.93865120  0.29983321     0.00200
C403        C  0.02948343  0.91773037  0.29985826    -0.12800
C404        C  0.02941657  0.89163865  0.32202076     0.00700
C405        C  0.44952183  0.95159032  0.32498778     0.40000
C406        C  0.05648029  0.87113401  0.32042967     0.36600
C407        C  0.45623000  0.83574471  0.34027966     0.36300
C408        C  0.05023421  0.83530776  0.45246415     0.37100
N409        N  0.42708168  0.96698059  0.32672803    -0.43700
N410        N  0.07816853  0.85473559  0.31919581    -0.44200
N411        N  0.06927591  0.83595233  0.47528454    -0.41500
N412        N  0.43743832  0.83539187  0.31718254    -0.42900
H413        H  0.46147683  0.79509360  0.39355171     0.13200
H414        H  0.04411660  0.87605295  0.39993810     0.09700
H415        H  0.45723421  0.90144916  0.36300311     0.10800
H416        H  0.05032371  0.92116386  0.28324098     0.16600
C417        C  0.02846447  0.59917328  0.31886652    -0.01600
C418        C  0.00161656  0.60794213  0.33985165     0.07000
C419        C  0.47338569  0.59083970  0.33699668    -0.07600
C420        C  0.47240489  0.56416653  0.31588528     0.04400
C421        C  0.00016547  0.55392938  0.29787233    -0.14800
C422        C  0.02770824  0.57201806  0.29860502    -0.08100
C423        C  0.00278634  0.63367597  0.36645186     0.05400
C424        C  0.48098936  0.65794377  0.36314983    -0.09300
C425        C  0.47990223  0.68144342  0.38918893     0.00300
C426        C  0.50084493  0.68081857  0.41939733     0.00200
C427        C  0.02301147  0.65683866  0.42228489    -0.12800
C428        C  0.02390596  0.63324120  0.39647699     0.00700
C429        C  0.45786730  0.70642702  0.38357587     0.40000
C430        C  0.04573510  0.60812784  0.40236805     0.36600
C431        C  0.05695007  0.61766755  0.31764703     0.36300
C432        C  0.44262582  0.54786582  0.31265056     0.37100
N433        N  0.44033028  0.72653553  0.37899775    -0.43700
N434        N  0.06328900  0.58803387  0.40693908    -0.44200
N435        N  0.41858025  0.03516095  0.30955339    -0.41500
N436        N  0.07976956  0.63250824  0.31655724    -0.42900
H437        H  0.04891970  0.56450076  0.28419394     0.13200
H438        H  0.45232491  0.59788972  0.35208903     0.09700
H439        H  0.46473044  0.65847083  0.34016154     0.10800
H440        H  0.03906538  0.65601235  0.44545381     0.16600
C441        C  0.52294045  0.85635009  0.60088825    -0.01600
C442        C  0.99858518  0.85917466  0.62736277     0.07000
C443        C  0.97351097  0.83794256  0.62748180    -0.07600
C444        C  0.97265471  0.81388542  0.60212675     0.04400
C445        C  0.99726597  0.81080964  0.57584484    -0.14800
C446        C  0.52225840  0.83221796  0.57575615    -0.08100
C447        C  0.99864694  0.88444554  0.65466231     0.05400
C448        C  0.47465528  0.90671435  0.65326798    -0.09300
C449        C  0.47506400  0.93202847  0.67674657     0.00300
C450        C  0.00029981  0.93593926  0.70231252     0.00200
C451        C  0.02329885  0.91233243  0.70479056    -0.12800
C452        C  0.02250534  0.88686974  0.68151944     0.00700
C453        C  0.44936126  0.95393331  0.67338897     0.40000
C454        C  0.04627112  0.86319785  0.68599327     0.36600
C455        C  0.54835728  0.87850446  0.59824389     0.36300
C456        C  0.94690734  0.79209471  0.60466223     0.37100
N457        N  0.42873857  0.97143953  0.67079445    -0.43700
N458        N  0.06522976  0.84416060  0.68956838    -0.44200
N459        N  0.92630570  0.77459184  0.60678306    -0.41500
N460        N  0.56870023  0.89628080  0.59612243    -0.42900
H461        H  0.54105490  0.83048479  0.55545259     0.13200
H462        H  0.95471370  0.84000842  0.64773814     0.09700
H463        H  0.45581224  0.90462035  0.63316584     0.10800
H464        H  0.04228690  0.91317484  0.72450830     0.16600
C465        C  0.02416870  0.63843405  0.60837806    -0.01600
C466        C  0.99570826  0.62905029  0.62557426     0.07000
C467        C  0.46727575  0.64473824  0.61796217    -0.07600
C468        C  0.46670273  0.66918642  0.59316885     0.04400
C469        C  0.49515364  0.67827511  0.57510090    -0.14800
C470        C  0.02368866  0.66271843  0.58348810    -0.08100
C471        C  0.49520020  0.60253044  0.65100256     0.05400
C472        C  0.01204790  0.60418129  0.68393426    -0.09300
C473        C  0.01414345  0.57891346  0.70746229     0.00300
C474        C  0.49965212  0.55080191  0.69766195     0.00200
C475        C  0.48109849  0.55011598  0.66554069    -0.12800
C476        C  0.47888530  0.57542201  0.64234253     0.00700
C477        C  0.03124428  0.58338936  0.74106495     0.40000
C478        C  0.46060959  0.57259913  0.60914267     0.36600
C479        C  0.05404839  0.62289068  0.61503621     0.36300
C480        C  0.43661541  0.68461929  0.58755812     0.37100
N481        N  0.04440692  0.58879620  0.76802149    -0.43700
N482        N  0.44589199  0.57030424  0.58259931    -0.44200
N483        N  0.41243527  0.69693335  0.58325527    -0.41500
N484        N  0.07798300  0.61045563  0.62045382    -0.42900
H485        H  0.04579914  0.66914944  0.57013111     0.13200
H486        H  0.44540536  0.63780714  0.63151359     0.09700
H487        H  0.02389517  0.62537163  0.69111870     0.10800
H488        H  0.46831729  0.52952222  0.65812990     0.16600
O489        O  0.97028881  0.21386210  0.53356987    -0.74000
O490        O  0.97401977  0.27685294  0.46083266    -0.74100
O491        O  0.97305748  0.21507251  0.45941289    -0.74100
O492        O  0.97125955  0.27597953  0.53487251    -0.74200
O493        O  0.52440694  0.27549786  0.53672606    -0.74100
O494        O  0.52616553  0.21357256  0.46265302    -0.74100
O495        O  0.52717011  0.27556830  0.46311247    -0.74100
O496        O  0.52330024  0.21339308  0.53653499    -0.74100
Ni497      Ni  0.97025645  0.24544621  0.49712507     1.25400
Ni498      Ni  0.52712689  0.24444098  0.49986077     1.25400
C499        C  0.49616789  0.20317291  0.54718878     0.88100
C500        C  0.00126762  0.28673031  0.45016931     0.88100
C501        C  0.99993934  0.20441048  0.44845627     0.88100
C502        C  0.49757356  0.28606347  0.54797896     0.88300
C503        C  0.00415506  0.46800314  0.27644085     0.86900
C504        C  0.97545076  0.47048288  0.25041089    -0.53400
C505        C  0.97402423  0.99719103  0.23092103     0.09800
C506        C  0.00204767  0.01893325  0.23870769     0.20800
C507        C  0.53324275  0.47320696  0.25120008    -0.54100
C508        C  0.53185077  0.99947323  0.23117249     0.09900
C509        C  0.00264645  0.99713533  0.29981707    -0.53600
C510        C  0.50150073  0.02359157  0.28017161     0.10500
H511        H  0.95771583  0.45255497  0.24771556     0.15000
H512        H  0.00117184  0.04078302  0.22334785     0.00700
H513        H  0.55328314  0.45790672  0.24800772     0.15300
H514        H  0.00257302  0.99688068  0.32946126     0.15100
C515        C  0.50275565  0.46553651  0.72514683     0.86900
C516        C  0.53137260  0.46938659  0.75109716    -0.53400
C517        C  0.53152444  0.99644102  0.76961989     0.09800
C518        C  0.50317055  0.01770918  0.76044096     0.20800
C519        C  0.97352405  0.47079681  0.74990086    -0.54100
C520        C  0.97352048  0.99800263  0.76843705     0.09900
C521        C  0.50446237  0.99391921  0.70064676    -0.53600
C522        C  0.00368236  0.02140295  0.71847207     0.10500
H523        H  0.54989474  0.45261226  0.75580372     0.15000
H524        H  0.50301627  0.03957155  0.77550658     0.00700
H525        H  0.95451839  0.45410467  0.75270963     0.15300
H526        H  0.50534885  0.99215478  0.67109828     0.15100
O527        O  0.78429196  0.04847204  0.96240023    -0.74000
O528        O  0.72054214  0.05253339  0.03775731    -0.74100
O529        O  0.78544056  0.05032595  0.03671146    -0.74100
O530        O  0.71912412  0.05035021  0.96412413    -0.74200
O531        O  0.71800613  0.49946401  0.96649309    -0.74100
O532        O  0.78380749  0.49951815  0.03806001    -0.74100
O533        O  0.71968401  0.50156394  0.04002658    -0.74100
O534        O  0.78254760  0.49774035  0.96443414    -0.74100
Ni535      Ni  0.75247109  0.05229297  0.00012749     1.25400
Ni536      Ni  0.75097677  0.49783460  0.00226718     1.25400
C537        C  0.79407783  0.02236215  0.95091483     0.88100
C538        C  0.70971826  0.02761039  0.05127096     0.88100
C539        C  0.79537642  0.02476019  0.04965793     0.88100
C540        C  0.70726352  0.02474478  0.95387456     0.88300
C541        C  0.60019399  0.53308426  0.82026767    -0.01600
C542        C  0.60279561  0.01421854  0.85131968     0.07000
C543        C  0.58118251  0.99005623  0.85600100    -0.07600
C544        C  0.55761537  0.98417973  0.82991138     0.04400
C545        C  0.55539182  0.00273901  0.79846082    -0.14800
C546        C  0.57696700  0.52682874  0.79384204    -0.08100
C547        C  0.62970599  0.01741398  0.87734998     0.05400
C548        C  0.63133181  0.04294456  0.90047314    -0.09300
C549        C  0.65657769  0.04624028  0.92532833     0.00300
C550        C  0.68079158  0.02367565  0.92709473     0.00200
C551        C  0.67900974  0.49827539  0.90375748    -0.12800
C552        C  0.65390822  0.49504842  0.87904025     0.00700
C553        C  0.65615294  0.07211961  0.94977906     0.40000
C554        C  0.65377286  0.46880103  0.85514370     0.36600
C555        C  0.62184199  0.55823888  0.81436090     0.36300
C556        C  0.53596876  0.95901684  0.83597941     0.37100
N557        N  0.65573676  0.09281017  0.96945337    -0.43700
N558        N  0.65359159  0.44780688  0.83594526    -0.45600
N559        N  0.01864264  0.93881749  0.84069093    -0.41500
N560        N  0.63911277  0.57851301  0.80986769    -0.42900
H561        H  0.57648679  0.53996635  0.76886045     0.13200
H562        H  0.58315023  0.97543087  0.87980501     0.09700
H563        H  0.61262072  0.06009067  0.89938872     0.10800
H564        H  0.69743969  0.48083773  0.90467836     0.16600
C565        C  0.88934204  0.50632155  0.80560485    -0.01600
C566        C  0.89453387  0.01786652  0.84096583     0.07000
C567        C  0.92565152  0.02534401  0.85161732    -0.07600
C568        C  0.95170754  0.02023955  0.82825752     0.04400
C569        C  0.94678543  0.00706317  0.79335783    -0.14800
C570        C  0.91528003  0.50099818  0.78226605    -0.08100
C571        C  0.86824987  0.01972946  0.86822390     0.05400
C572        C  0.85461922  0.49248386  0.88077940    -0.09300
C573        C  0.83040706  0.49262122  0.90717677     0.00300
C574        C  0.81927205  0.02073795  0.92193251     0.00200
C575        C  0.83294830  0.04808945  0.90884628    -0.12800
C576        C  0.85718176  0.04775897  0.88232208     0.00700
C577        C  0.81774921  0.46334596  0.91819868     0.40000
C578        C  0.86990633  0.07644311  0.86940460     0.36600
C579        C  0.85752617  0.49983948  0.79273320     0.36300
C580        C  0.98296846  0.02770107  0.84198213     0.37100
N581        N  0.80772531  0.43978899  0.92685151    -0.43700
N582        N  0.88006537  0.09941940  0.85893383    -0.44200
N583        N  0.50755074  0.03444365  0.85382042    -0.41500
N584        N  0.83197018  0.49479169  0.78247529    -0.42900
H585        H  0.91087613  0.49179034  0.75527152     0.13200
H586        H  0.92969403  0.03428256  0.87882999     0.09700
H587        H  0.86318775  0.47086544  0.86999240     0.10800
H588        H  0.82482903  0.06991990  0.91938218     0.16600
C589        C  0.59479064  0.04311716  0.17835227    -0.01600
C590        C  0.60530500  0.02087216  0.15318934     0.07000
C591        C  0.59021828  0.99234127  0.15218782    -0.07600
C592        C  0.56562416  0.48532614  0.17654549     0.04400
C593        C  0.55609790  0.00700497  0.20304879    -0.14800
C594        C  0.57018481  0.03608244  0.20293862    -0.08100
C595        C  0.63310260  0.02580260  0.12887154     0.05400
C596        C  0.66062074  0.50823553  0.13489912    -0.09300
C597        C  0.68639647  0.50947167  0.11068747     0.00300
C598        C  0.68482475  0.02859589  0.07973235     0.00200
C599        C  0.65785981  0.04720317  0.07450621    -0.12800
C600        C  0.63188316  0.04571601  0.09862838     0.00700
C601        C  0.71435047  0.49121439  0.11843230     0.40000
C602        C  0.60364193  0.06347490  0.09076166     0.36600
C603        C  0.60962953  0.07281270  0.18026192     0.36300
C604        C  0.54989911  0.45611585  0.17294026     0.37100
N605        N  0.73681678  0.47670339  0.12467252    -0.43700
N606        N  0.58097087  0.07767504  0.08448571    -0.44200
N607        N  0.03724052  0.43275032  0.17007275    -0.41500
N608        N  0.62147742  0.09665496  0.18167903    -0.42900
H609        H  0.56258723  0.05302651  0.22267453     0.13200
H610        H  0.59786005  0.47540966  0.13235503     0.09700
H611        H  0.66168170  0.49308049  0.15831237     0.10800
H612        H  0.65645785  0.06180074  0.05062343     0.16600
C613        C  0.85817325  0.99183634  0.11266863    -0.01600
C614        C  0.86866735  0.01766481  0.13200031     0.07000
C615        C  0.85503667  0.04627784  0.12460915    -0.07600
C616        C  0.83097572  0.04943459  0.09824194     0.04400
C617        C  0.82061786  0.02352602  0.07826229    -0.14800
C618        C  0.83452469  0.99491550  0.08613308    -0.08100
C619        C  0.89481630  0.01509704  0.15892607     0.05400
C620        C  0.92573229  0.02307892  0.14807313    -0.09300
C621        C  0.95190090  0.01768066  0.17090177     0.00300
C622        C  0.94715779  0.00443045  0.20576083     0.00200
C623        C  0.91587523  0.49721409  0.21683901    -0.12800
C624        C  0.88985474  0.50223569  0.19369233     0.00700
C625        C  0.98319303  0.02428146  0.15645869     0.40000
C626        C  0.85834035  0.49356798  0.20584577     0.36600
C627        C  0.87176412  0.46194150  0.11922597     0.36300
C628        C  0.81705514  0.07933919  0.09315764     0.37100
N629        N  0.00786372  0.02992472  0.14392770    -0.43700
N630        N  0.83308380  0.48653371  0.21551117    -0.44200
N631        N  0.80590294  0.10335346  0.08934092    -0.41500
N632        N  0.88262287  0.43802420  0.12462943    -0.42900
H633        H  0.82711523  0.97467451  0.07136203     0.13200
H634        H  0.86313486  0.06614898  0.13964515     0.09700
H635        H  0.92953843  0.03248646  0.12101046     0.10800
H636        H  0.91172175  0.48741816  0.24361860     0.16600
C637        C  0.97980012  0.33620126  0.36899131    -0.01600
C638        C  0.00319063  0.35931085  0.37069651     0.07000
C639        C  0.52636660  0.35811401  0.39822918    -0.07600
C640        C  0.52646768  0.33450935  0.42401174     0.04400
C641        C  0.00275635  0.31156892  0.42272736    -0.14800
C642        C  0.97960308  0.31274029  0.39505544    -0.08100
C643        C  0.50328461  0.38564794  0.34504107     0.05400
C644        C  0.97735873  0.40586604  0.34507359    -0.09300
C645        C  0.97725214  0.43199722  0.32296289     0.00300
C646        C  0.00366822  0.43865481  0.29983996     0.00200
C647        C  0.52950091  0.41774035  0.29986913    -0.12800
C648        C  0.52943797  0.39164973  0.32203300     0.00700
C649        C  0.94952887  0.45158483  0.32498952     0.40000
C650        C  0.55650478  0.37114877  0.32044291     0.36600
C651        C  0.95624520  0.33575701  0.34029001     0.36300
C652        C  0.55026298  0.33530180  0.45246227     0.37100
N653        N  0.92708379  0.46696872  0.32672623    -0.43700
N654        N  0.57819554  0.35475336  0.31920977    -0.44200
N655        N  0.56930823  0.33594115  0.47527901    -0.41500
N656        N  0.93745139  0.33540780  0.31719507    -0.42900
H657        H  0.96149118  0.29510319  0.39355805     0.13200
H658        H  0.54414440  0.37605281  0.39994261     0.09700
H659        H  0.95725110  0.40144978  0.36301153     0.10800
H660        H  0.55034139  0.42117682  0.28325331     0.16600
C661        C  0.52846355  0.09916881  0.31887290    -0.01600
C662        C  0.50160973  0.10794246  0.33984558     0.07000
C663        C  0.97337575  0.09084452  0.33697568    -0.07600
C664        C  0.97239801  0.06417110  0.31586396     0.04400
C665        C  0.50016495  0.05392834  0.29786802    -0.14800
C666        C  0.52771060  0.07201245  0.29861341    -0.08100
C667        C  0.50277675  0.13367472  0.36644893     0.05400
C668        C  0.98098395  0.15794492  0.36314418    -0.09300
C669        C  0.97989890  0.18144569  0.38918247     0.00300
C670        C  0.00083993  0.18081889  0.41939238     0.00200
C671        C  0.52300097  0.15683552  0.42228374    -0.12800
C672        C  0.52389237  0.13323660  0.39647782     0.00700
C673        C  0.95786824  0.20643237  0.38356703     0.40000
C674        C  0.54571439  0.10811856  0.40237490     0.36600
C675        C  0.55695178  0.11765985  0.31766356     0.36300
C676        C  0.94261649  0.04787707  0.31261027     0.37100
N677        N  0.94033445  0.22654317  0.37898707    -0.43700
N678        N  0.56326259  0.08802084  0.40695096    -0.44200
N679        N  0.91858986  0.53514472  0.30960862    -0.41500
N680        N  0.57977317  0.13249828  0.31658193    -0.42900
H681        H  0.54892606  0.06449129  0.28421269     0.13200
H682        H  0.95231017  0.09789897  0.35205626     0.09700
H683        H  0.96472773  0.15847457  0.34015350     0.10800
H684        H  0.53905275  0.15600700  0.44545449     0.16600
C685        C  0.02296964  0.35633923  0.60090013    -0.01600
C686        C  0.49861207  0.35916603  0.62737258     0.07000
C687        C  0.47353688  0.33793514  0.62748930    -0.07600
C688        C  0.47268035  0.31387880  0.60213342     0.04400
C689        C  0.49729176  0.31080287  0.57585172    -0.14800
C690        C  0.02228648  0.33220815  0.57576619    -0.08100
C691        C  0.49867024  0.38443873  0.65466993     0.05400
C692        C  0.97467894  0.40670765  0.65326832    -0.09300
C693        C  0.97508238  0.43202172  0.67674729     0.00300
C694        C  0.50031154  0.43593252  0.70232131     0.00200
C695        C  0.52331064  0.41232587  0.70480526    -0.12800
C696        C  0.52252314  0.38686351  0.68153320     0.00700
C697        C  0.94938049  0.45392659  0.67338257     0.40000
C698        C  0.54628919  0.36319258  0.68601270     0.36600
C699        C  0.04838990  0.37849033  0.59826046     0.36300
C700        C  0.44693196  0.29208917  0.60466776     0.37100
N701        N  0.92875851  0.47143296  0.67078223    -0.43700
N702        N  0.56524826  0.34415633  0.68959233    -0.44200
N703        N  0.42632944  0.27458726  0.60678829    -0.41500
N704        N  0.06873588  0.39626380  0.59614286    -0.42900
H705        H  0.04108389  0.33047403  0.55546384     0.13200
H706        H  0.45473838  0.34000184  0.64774404     0.09700
H707        H  0.95583990  0.40461345  0.63316131     0.10800
H708        H  0.54229430  0.41316784  0.72452843     0.16600
C709        C  0.52415765  0.13840344  0.60833068    -0.01600
C710        C  0.49570188  0.12904726  0.62555781     0.07000
C711        C  0.96727878  0.14475969  0.61797619    -0.07600
C712        C  0.96671022  0.16920879  0.59318433     0.04400
C713        C  0.99515603  0.17827198  0.57508802    -0.14800
C714        C  0.52368207  0.16268857  0.58344231    -0.08100
C715        C  0.99519060  0.10253177  0.65099097     0.05400
C716        C  0.51204694  0.10418136  0.68391529    -0.09300
C717        C  0.51414073  0.07891527  0.70744570     0.00300
C718        C  0.99964050  0.05080683  0.69765323     0.00200
C719        C  0.98107787  0.05012268  0.66553871    -0.12800
C720        C  0.97886533  0.07542768  0.64233905     0.00700
C721        C  0.53125146  0.08338839  0.74104227     0.40000
C722        C  0.96058048  0.07260848  0.60914531     0.36600
C723        C  0.55402639  0.12283079  0.61495606     0.36300
C724        C  0.93663465  0.18467128  0.58760676     0.37100
N725        N  0.54442232  0.08879232  0.76799433    -0.43700
N726        N  0.94585617  0.07031693  0.58260641    -0.44200
N727        N  0.91246408  0.19700914  0.58333033    -0.41500
N728        N  0.57795213  0.11037171  0.62034665    -0.42900
H729        H  0.54578792  0.16909920  0.57006110     0.13200
H730        H  0.94541259  0.13784786  0.63155063     0.09700
H731        H  0.52390353  0.12536878  0.69109189     0.10800
H732        H  0.96829041  0.02953088  0.65813414     0.16600
O733        O  0.97028216  0.71385907  0.53357571    -0.74000
O734        O  0.97400417  0.77684553  0.46083047    -0.74100
O735        O  0.97305466  0.71506475  0.45941833    -0.74100
O736        O  0.97124041  0.77597739  0.53487067    -0.74200
O737        O  0.52438852  0.77550366  0.53672799    -0.74100
O738        O  0.52616238  0.71357380  0.46266158    -0.74100
O739        O  0.52715458  0.77556978  0.46311463    -0.74100
O740        O  0.52329352  0.71339836  0.53654436    -0.74100
Ni741      Ni  0.97024541  0.74544063  0.49712686     1.25400
Ni742      Ni  0.52711589  0.74444467  0.49986649     1.25400
C743        C  0.49616267  0.70317426  0.54719824     0.88100
C744        C  0.00125066  0.78672708  0.45016784     0.88100
C745        C  0.99993911  0.70440757  0.44846328     0.88100
C746        C  0.49755297  0.78606651  0.54797766     0.88300
C747        C  0.00414728  0.96800065  0.27643501     0.86900
C748        C  0.97544323  0.97048517  0.25040512    -0.53400
C749        C  0.97402778  0.49718794  0.23092535     0.09800
C750        C  0.00204844  0.51893407  0.23871143     0.20800
C751        C  0.53323646  0.97320163  0.25119557    -0.54100
C752        C  0.53185321  0.49947747  0.23117571     0.09900
C753        C  0.00265047  0.49713789  0.29982164    -0.53600
C754        C  0.50150074  0.52359362  0.28017500     0.10500
H755        H  0.95770449  0.95256067  0.24771005     0.15000
H756        H  0.00117024  0.54078358  0.22335142     0.00700
H757        H  0.55327627  0.95790027  0.24800541     0.15300
H758        H  0.00257838  0.49688393  0.32946586     0.15100
C759        C  0.50274867  0.96554315  0.72513745     0.86900
C760        C  0.53137011  0.96939465  0.75108143    -0.53400
C761        C  0.53152526  0.49643264  0.76963562     0.09800
C762        C  0.50317430  0.51770246  0.76045073     0.20800
C763        C  0.97352138  0.97080148  0.74989897    -0.54100
C764        C  0.97352213  0.49799771  0.76843969     0.09900
C765        C  0.50447539  0.49391290  0.70065673    -0.53600
C766        C  0.00369300  0.52139752  0.71848133     0.10500
H767        H  0.54989219  0.95261980  0.75578616     0.15000
H768        H  0.50301850  0.53956409  0.77551783     0.00700
H769        H  0.95451765  0.95410786  0.75271231     0.15300
H770        H  0.50536739  0.49214814  0.67110854     0.15100
O771        O  0.78429683  0.54847111  0.96240475    -0.74000
O772        O  0.72054541  0.55252662  0.03776062    -0.74100
O773        O  0.78544437  0.55031765  0.03671617    -0.74100
O774        O  0.71912984  0.55035134  0.96412777    -0.74200
O775        O  0.71800132  0.99946333  0.96649723    -0.74100
O776        O  0.78380536  0.99952669  0.03806187    -0.74100
O777        O  0.71968247  0.00157095  0.04003074    -0.74100
O778        O  0.78254379  0.99774148  0.96443607    -0.74100
Ni779      Ni  0.75247565  0.55228930  0.00013210     1.25400
Ni780      Ni  0.75097372  0.99783862  0.00227018     1.25400
C781        C  0.79408122  0.52236202  0.95091508     0.88100
C782        C  0.70971937  0.52760251  0.05126913     0.88100
C783        C  0.79537978  0.52475030  0.04965847     0.88100
C784        C  0.70726982  0.52474709  0.95387364     0.88300
C785        C  0.60020221  0.03307754  0.82025410    -0.01600
C786        C  0.60279982  0.51421990  0.85132691     0.07000
C787        C  0.58119751  0.49004856  0.85600610    -0.07600
C788        C  0.55762872  0.48416842  0.82991986     0.04400
C789        C  0.55539348  0.50273284  0.79847453    -0.14800
C790        C  0.57697584  0.02682612  0.79382585    -0.08100
C791        C  0.62971355  0.51741879  0.87735097     0.05400
C792        C  0.63133147  0.54294231  0.90048584    -0.09300
C793        C  0.65657859  0.54623866  0.92533897     0.00300
C794        C  0.68080016  0.52368109  0.92709217     0.00200
C795        C  0.67899173  0.99826144  0.90377384    -0.12800
C796        C  0.65389050  0.99503434  0.87905578     0.00700
C797        C  0.65614763  0.57211032  0.94980117     0.40000
C798        C  0.65374551  0.96877703  0.85517491     0.36600
C799        C  0.62186259  0.05822181  0.81434359     0.36300
C800        C  0.53599255  0.45899707  0.83598669     0.37100
N801        N  0.65572682  0.59279498  0.96948421    -0.43700
N802        N  0.65355626  0.94777467  0.83598939    -0.45600
N803        N  0.01867548  0.43879145  0.84069739    -0.41500
N804        N  0.63914374  0.07848739  0.80984746    -0.42900
H805        H  0.57650374  0.03996006  0.76884111     0.13200
H806        H  0.58317514  0.47541924  0.87980560     0.09700
H807        H  0.61261323  0.56008176  0.89941258     0.10800
H808        H  0.69741451  0.98081728  0.90470539     0.16600
C809        C  0.88934394  0.00630787  0.80561710    -0.01600
C810        C  0.89453094  0.51787062  0.84095848     0.07000
C811        C  0.92564962  0.52533580  0.85161792    -0.07600
C812        C  0.95170703  0.52022837  0.82826143     0.04400
C813        C  0.94678571  0.50705989  0.79335743    -0.14800
C814        C  0.91528001  0.00098959  0.78227442    -0.08100
C815        C  0.86824502  0.51973358  0.86821435     0.05400
C816        C  0.85463534  0.99247936  0.88080370    -0.09300
C817        C  0.83042036  0.99261785  0.90719768     0.00300
C818        C  0.81927253  0.52073968  0.92192946     0.00200
C819        C  0.83295914  0.54809103  0.90885730    -0.12800
C820        C  0.85719045  0.54776173  0.88233051     0.00700
C821        C  0.81777393  0.96334201  0.91823456     0.40000
C822        C  0.86992768  0.57644615  0.86943035     0.36600
C823        C  0.85752888  0.99980886  0.79275495     0.36300
C824        C  0.98296822  0.52767871  0.84199375     0.37100
N825        N  0.80775901  0.93978451  0.92689901    -0.43700
N826        N  0.88009685  0.59942289  0.85897394    -0.44200
N827        N  0.50755053  0.53441291  0.85383956    -0.41500
N828        N  0.83197358  0.99474663  0.78250501    -0.42900
H829        H  0.91087472  0.99177546  0.75528329     0.13200
H830        H  0.92969153  0.53426696  0.87883419     0.09700
H831        H  0.86321377  0.97086002  0.87002953     0.10800
H832        H  0.82485056  0.56992033  0.91940732     0.16600
C833        C  0.59478873  0.54311421  0.17834130    -0.01600
C834        C  0.60529929  0.52086632  0.15317989     0.07000
C835        C  0.59020950  0.49233691  0.15218218    -0.07600
C836        C  0.56563162  0.98532654  0.17654785     0.04400
C837        C  0.55609574  0.50700683  0.20304632    -0.14800
C838        C  0.57018473  0.53608321  0.20293141    -0.08100
C839        C  0.63309659  0.52579247  0.12886069     0.05400
C840        C  0.66062723  0.00824566  0.13490727    -0.09300
C841        C  0.68640145  0.00948229  0.11069356     0.00300
C842        C  0.68482238  0.52858584  0.07972661     0.00200
C843        C  0.65785673  0.54719146  0.07449640    -0.12800
C844        C  0.63187806  0.54570372  0.09861561     0.00700
C845        C  0.71435674  0.99122630  0.11843683     0.40000
C846        C  0.60363560  0.56345936  0.09074404     0.36600
C847        C  0.60962986  0.57280895  0.18024561     0.36300
C848        C  0.54991043  0.95611476  0.17293842     0.37100
N849        N  0.73682424  0.97671670  0.12467610    -0.43700
N850        N  0.58096308  0.57765614  0.08446422    -0.44200
N851        N  0.03725231  0.93274957  0.17006515    -0.41500
N852        N  0.62147944  0.59665062  0.18165842    -0.42900
H853        H  0.56259050  0.55302917  0.22266656     0.13200
H854        H  0.59787205  0.97541600  0.13235986     0.09700
H855        H  0.66168950  0.99308981  0.15831968     0.10800
H856        H  0.65645611  0.56178826  0.05061287     0.16600
C857        C  0.85819564  0.49182287  0.11264053    -0.01600
C858        C  0.86867505  0.51764592  0.13199285     0.07000
C859        C  0.85503033  0.54625660  0.12462276    -0.07600
C860        C  0.83096890  0.54941617  0.09825689     0.04400
C861        C  0.82062319  0.52351291  0.07825954    -0.14800
C862        C  0.83454486  0.49490477  0.08610803    -0.08100
C863        C  0.89482244  0.51507636  0.15891980     0.05400
C864        C  0.92573647  0.52307125  0.14807415    -0.09300
C865        C  0.95190428  0.51767758  0.17090529     0.00300
C866        C  0.94716189  0.50442075  0.20576114     0.00200
C867        C  0.91586982  0.99723833  0.21684676    -0.12800
C868        C  0.88984796  0.00226692  0.19370421     0.00700
C869        C  0.98319522  0.52429015  0.15646677     0.40000
C870        C  0.85833105  0.99361795  0.20586825     0.36600
C871        C  0.87172391  0.96195140  0.11927894     0.36300
C872        C  0.81703528  0.57931755  0.09319191     0.37100
N873        N  0.00786453  0.52994305  0.14393851    -0.43700
N874        N  0.83307234  0.98659939  0.21554267    -0.44200
N875        N  0.80587317  0.60332926  0.08939004    -0.41500
N876        N  0.88256786  0.93803127  0.12470316    -0.42900
H877        H  0.82714588  0.47466840  0.07132100     0.13200
H878        H  0.86311821  0.56612359  0.13967386     0.09700
H879        H  0.92954211  0.53248601  0.12101495     0.10800
H880        H  0.91171650  0.98744850  0.24362958     0.16600
C881        C  0.97978159  0.83619217  0.36898253    -0.01600
C882        C  0.00316913  0.85930462  0.37068787     0.07000
C883        C  0.52634233  0.85811230  0.39822522    -0.07600
C884        C  0.52644388  0.83450941  0.42401035     0.04400
C885        C  0.00273667  0.81156512  0.42272372    -0.14800
C886        C  0.97958554  0.81273228  0.39504888    -0.08100
C887        C  0.50326385  0.88564037  0.34503072     0.05400
C888        C  0.97734084  0.90586210  0.34506310    -0.09300
C889        C  0.97723891  0.93199549  0.32295525     0.00300
C890        C  0.00365578  0.93865061  0.29983225     0.00200
C891        C  0.52948419  0.91773075  0.29985892    -0.12800
C892        C  0.52941735  0.89163910  0.32202155     0.00700
C893        C  0.94952054  0.95158926  0.32498619     0.40000
C894        C  0.55648081  0.87113417  0.32043010     0.36600
C895        C  0.95622928  0.83574366  0.34027861     0.36300
C896        C  0.55023504  0.83530795  0.45246509     0.37100
N897        N  0.92708025  0.96697937  0.32672624    -0.43700
N898        N  0.57816884  0.85473550  0.31919592    -0.44200
N899        N  0.56927674  0.83595236  0.47528547    -0.41500
N900        N  0.93743762  0.83539063  0.31718147    -0.42900
H901        H  0.96147627  0.79509277  0.39355088     0.13200
H902        H  0.54411765  0.87605332  0.39993915     0.09700
H903        H  0.95723290  0.90144801  0.36300134     0.10800
H904        H  0.55032426  0.92116395  0.28324117     0.16600
C905        C  0.52846350  0.59917468  0.31886524    -0.01600
C906        C  0.50161586  0.60794291  0.33985118     0.07000
C907        C  0.97338606  0.59083951  0.33699638    -0.07600
C908        C  0.97240509  0.56416635  0.31588497     0.04400
C909        C  0.50016515  0.55393012  0.29787191    -0.14800
C910        C  0.52770748  0.57201944  0.29860377    -0.08100
C911        C  0.50278568  0.63367666  0.36645150     0.05400
C912        C  0.98099059  0.65794347  0.36314939    -0.09300
C913        C  0.97990328  0.68144321  0.38918837     0.00300
C914        C  0.00084521  0.68081806  0.41939744     0.00200
C915        C  0.52301171  0.65683954  0.42228399    -0.12800
C916        C  0.52390602  0.63324217  0.39647597     0.00700
C917        C  0.95786902  0.70642724  0.38357451     0.40000
C918        C  0.54573578  0.60812917  0.40236625     0.36600
C919        C  0.55694860  0.61766960  0.31764492     0.36300
C920        C  0.94262577  0.54786613  0.31264961     0.37100
N921        N  0.94033257  0.72653608  0.37899575    -0.43700
N922        N  0.56329015  0.58803548  0.40693664    -0.44200
N923        N  0.91857955  0.03516008  0.30955355    -0.41500
N924        N  0.57976770  0.63251083  0.31655448    -0.42900
H925        H  0.54891881  0.56450261  0.28419209     0.13200
H926        H  0.95232512  0.59788997  0.35208815     0.09700
H927        H  0.96473224  0.65847077  0.34016058     0.10800
H928        H  0.53906619  0.65601342  0.44545239     0.16600
C929        C  0.02293958  0.85635033  0.60088743    -0.01600
C930        C  0.49858594  0.85917452  0.62736343     0.07000
C931        C  0.47351172  0.83794242  0.62748243    -0.07600
C932        C  0.47265553  0.81388525  0.60212743     0.04400
C933        C  0.49726687  0.81080941  0.57584564    -0.14800
C934        C  0.02225745  0.83221826  0.57575525    -0.08100
C935        C  0.49864748  0.88444555  0.65466277     0.05400
C936        C  0.97465500  0.90671459  0.65326764    -0.09300
C937        C  0.97506397  0.93202859  0.67674640     0.00300
C938        C  0.50029983  0.93593952  0.70231260     0.00200
C939        C  0.52329911  0.91233291  0.70479079    -0.12800
C940        C  0.52250586  0.88687010  0.68151985     0.00700
C941        C  0.94936149  0.95393371  0.67338888     0.40000
C942        C  0.54627191  0.86319847  0.68599386     0.36600
C943        C  0.04835643  0.87850466  0.59824309     0.36300
C944        C  0.44690805  0.79209464  0.60466278     0.37100
N945        N  0.92873901  0.97144017  0.67079441    -0.43700
N946        N  0.56523077  0.84416145  0.68956911    -0.44200
N947        N  0.42630632  0.77459186  0.60678348    -0.41500
N948        N  0.06869941  0.89628097  0.59612165    -0.42900
H949        H  0.04105389  0.83048514  0.55545162     0.13200
H950        H  0.45471436  0.84000835  0.64773865     0.09700
H951        H  0.95581196  0.90462087  0.63316545     0.10800
H952        H  0.54228716  0.91317556  0.72450852     0.16600
C953        C  0.52416875  0.63843356  0.60837772    -0.01600
C954        C  0.49570830  0.62904990  0.62557397     0.07000
C955        C  0.96727565  0.64473850  0.61796240    -0.07600
C956        C  0.96670255  0.66918663  0.59316902     0.04400
C957        C  0.99515344  0.67827537  0.57510104    -0.14800
C958        C  0.52368880  0.66271800  0.58348784    -0.08100
C959        C  0.99520026  0.60253077  0.65100278     0.05400
C960        C  0.51204784  0.60418098  0.68393404    -0.09300
C961        C  0.51414315  0.57891324  0.70746226     0.00300
C962        C  0.99965263  0.55080207  0.69766183     0.00200
C963        C  0.98109897  0.55011614  0.66554058    -0.12800
C964        C  0.97888558  0.57542226  0.64234258     0.00700
C965        C  0.53124386  0.58338921  0.74106498     0.40000
C966        C  0.96060994  0.57259936  0.60914268     0.36600
C967        C  0.55404837  0.62289001  0.61503573     0.36300
C968        C  0.93661519  0.68461943  0.58755827     0.37100
N969        N  0.54440639  0.58879612  0.76802157    -0.43700
N970        N  0.94589240  0.57030445  0.58259928    -0.44200
N971        N  0.91243503  0.69693345  0.58325542    -0.41500
N972        N  0.57798292  0.61045481  0.62045321    -0.42900
H973        H  0.54579929  0.66914896  0.57013084     0.13200
H974        H  0.94540528  0.63780733  0.63151380     0.09700
H975        H  0.52389525  0.62537127  0.69111837     0.10800
H976        H  0.96831793  0.52952233  0.65812967     0.16600
loop_ 
_geom_bond_atom_site_label_1 
_geom_bond_atom_site_label_2 
_geom_bond_distance 
_geom_bond_site_symmetry_2 
_ccdc_geom_bond_type 
O1           Ni9   1.921       .  S
O1          C499   1.282       .  A
O2           Ni9   1.918       .  S
O2           C12   1.281       .  A
O3           Ni9   1.921       .  S
O3           C13   1.282       .  A
O4           Ni9   1.924       .  S
O4          C502   1.283       .  A
O5          Ni10   1.919       .  S
O5           C14   1.282   1_455  A
O6          Ni10   1.920       .  S
O6          C501   1.282   1_455  A
O7          Ni10   1.915       .  S
O7          C500   1.281       .  A
O8          Ni10   1.917       .  S
O8           C11   1.282   1_455  A
Ni9        Ni498   2.385       .  S
Ni10       Ni497   2.385   1_455  S
C11         O489   1.282       .  A
C11         C713   1.494       .  S
C12         O495   1.281       .  A
C12         C153   1.482       .  S
C13         O494   1.282       .  A
C13         C182   1.484       .  S
C14         O492   1.283       .  A
C14         C201   1.488       .  S
C15          C16   1.540       .  S
C15         C265   1.537       .  S
C15         C507   1.545       .  S
C15         C158   1.544       .  S
C16          H23   1.086       .  S
C16         C261   1.370       .  D
C17          C18   1.540   1_565  S
C17         C260   1.370       .  D
C17         C134   1.490   1_565  S
C18         C510   1.533       .  S
C18         C508   1.534   1_545  S
C18          H24   1.110       .  S
C19         C503   1.545       .  S
C19          H25   1.079       .  S
C19         C264   1.364       .  D
C20         C506   1.534   1_565  S
C20         C263   1.364       .  D
C20         C105   1.483   1_565  S
C21         C259   1.537       .  S
C21          H26   1.086       .  S
C21         C510   1.364   1_565  D
C22         C506   1.533       .  S
C22         C509   1.364   1_545  D
C22         C177   1.478       .  S
C27          C28   1.541       .  S
C27         C277   1.533       .  S
C27         C519   1.539   1_455  S
C27         C206   1.546       .  S
C28          H35   1.081       .  S
C28         C273   1.365       .  D
C29          C30   1.545   1_565  S
C29         C272   1.365       .  D
C29          C57   1.483   1_565  S
C30         C522   1.546       .  S
C30         C520   1.541   1_445  S
C30          H36   1.104       .  S
C31         C515   1.539       .  S
C31          H37   1.086       .  S
C31         C276   1.370       .  D
C32         C518   1.541   1_565  S
C32         C275   1.370       .  D
C32          C81   1.496   1_565  S
C33         C271   1.533       .  S
C33          H38   1.086       .  S
C33         C522   1.369   1_565  D
C34         C518   1.546       .  S
C34         C521   1.369   1_545  D
C34         C230   1.505       .  S
O39         Ni47   1.925   1_556  S
O39          C49   1.284       .  A
O40         Ni47   1.919       .  S
O40          C50   1.281       .  A
O41         Ni47   1.929       .  S
O41          C51   1.284       .  A
O42         Ni47   1.926   1_556  S
O42          C52   1.283       .  A
O43         Ni48   1.908   1_556  S
O43         C296   1.280       .  A
O44         Ni48   1.904       .  S
O44         C295   1.280       .  A
O45         Ni48   1.911       .  S
O45         C294   1.280       .  A
O46         Ni48   1.914   1_556  S
O46         C293   1.280       .  A
Ni47       Ni292   2.384   1_545  S
Ni48       Ni291   2.384       .  S
C49         O290   1.280   1_545  A
C49          C86   1.497       .  S
C50         O289   1.280       .  A
C50         C110   1.474       .  S
C51         O288   1.280   1_545  A
C51         C129   1.491       .  S
C52         O287   1.280   1_545  A
C52          C62   1.483       .  S
C53          C58   1.402       .  A
C53         C298   1.410       .  A
C53          C67   1.443       .  S
C54          C59   1.485       .  S
C54          C55   1.403   1_545  A
C54         C297   1.410       .  A
C55          C56   1.400       .  A
C55          H74   1.085       .  S
C56          C57   1.413   1_565  A
C56          C68   1.444       .  S
C57         C302   1.400       .  A
C58         C301   1.400       .  A
C58          H73   1.081       .  S
C59          C60   1.404       .  A
C59         C308   1.409   1_545  A
C60          C61   1.405       .  A
C60          H75   1.085       .  S
C61          C62   1.416       .  A
C61          C65   1.444       .  S
C62         C307   1.405   1_545  A
C63          C64   1.397       .  A
C63         C306   1.405       .  A
C63          H76   1.085       .  S
C64         C303   1.409       .  A
C64          C66   1.444       .  S
C65          N69   1.157       .  T
C66          N70   1.157       .  T
C67          N72   1.157       .  T
C68         N559   1.157       .  T
N71         C556   1.157       .  T
C77          C82   1.401       .  A
C77         C322   1.408       .  A
C77          C91   1.443       .  S
C78          C83   1.487       .  S
C78          C79   1.401       .  A
C78         C321   1.408       .  A
C79          C80   1.403       .  A
C79          H98   1.085       .  S
C80          C81   1.419       .  A
C80          C92   1.442       .  S
C81         C326   1.408       .  A
C82         C325   1.408       .  A
C82          H97   1.085       .  S
C83          C88   1.408       .  A
C83         C328   1.400   1_545  A
C84          C85   1.400       .  A
C84         C327   1.400       .  A
C84          H99   1.085       .  S
C85         C330   1.421       .  A
C85          C89   1.444       .  S
C86          C87   1.411       .  A
C86         C329   1.421   1_545  A
C87          C88   1.404       .  A
C87         H100   1.084       .  S
C88          C90   1.444       .  S
C89          N93   1.157       .  T
C90          N94   1.157       .  T
C91          N96   1.157       .  T
C92         N583   1.157       .  T
N95         C580   1.157   1_455  T
C101        C102   1.410       .  A
C101        C106   1.402       .  A
C101        C115   1.443       .  S
C102        C107   1.481       .  S
C102        C103   1.401   1_545  A
C103        C348   1.396       .  A
C103        H366   1.085       .  S
C104        C347   1.396       .  A
C104        C349   1.414       .  A
C104        C116   1.445       .  S
C105        C106   1.403       .  A
C105        C348   1.414   1_545  A
C106        H121   1.083       .  S
C107        C112   1.410       .  A
C107        C352   1.402       .  A
C108        C109   1.397       .  A
C108        C351   1.402       .  A
C108        H123   1.085       .  S
C109        C354   1.411       .  A
C109        C113   1.445       .  S
C110        C111   1.404       .  A
C110        C353   1.411       .  A
C111        C112   1.402       .  A
C111        H124   1.085       .  S
C112        C114   1.444       .  S
C113        N117   1.157       .  T
C114        N118   1.157       .  T
C115        N120   1.157       .  T
C116        N607   1.157       .  T
N119        C604   1.157       .  T
H122        C347   1.085       .  S
C125        C126   1.406   1_565  A
C125        C130   1.396       .  A
C125        C383   1.445       .  S
C126        C131   1.480       .  S
C126        C127   1.401       .  A
C127        C128   1.404       .  A
C127        H146   1.085       .  S
C128        C129   1.419       .  A
C128        C140   1.443       .  S
C129        C130   1.409   1_545  A
C130        H145   1.084       .  S
C131        C132   1.399       .  A
C131        C380   1.408       .  A
C132        C133   1.400       .  A
C132        H147   1.085       .  S
C133        C134   1.416       .  A
C133        C137   1.442       .  S
C134        C379   1.408   1_545  A
C135        C136   1.400       .  A
C135        C378   1.408       .  A
C135        H148   1.084       .  S
C136        C375   1.408       .  A
C136        C138   1.444       .  S
C137        N141   1.157       .  T
C138        N142   1.157       .  T
C139        C369   1.445       .  S
C139        N144   1.157       .  T
C140        N143   1.157       .  T
C149        C150   1.411       .  A
C149        C154   1.402       .  A
C149        C163   1.444       .  S
C150        C643   1.487       .  S
C150        C639   1.403       .  A
C151        C152   1.399       .  A
C151        C638   1.403       .  A
C151        H170   1.085       .  S
C152        C641   1.414       .  A
C152        C164   1.444       .  S
C153        C154   1.406       .  A
C153        C640   1.414       .  A
C154        H169   1.085       .  S
C155        C638   1.487       .  S
C155        C160   1.406       .  A
C155        C644   1.399   1_455  A
C156        C157   1.401       .  A
C156        C643   1.399       .  A
C156        H171   1.085       .  S
C157        C158   1.423       .  A
C157        C161   1.444       .  S
C158        C647   1.416       .  A
C159        C160   1.401       .  A
C159        C646   1.416       .  A
C159        H172   1.074       .  S
C160        C162   1.445       .  S
C161        N165   1.157       .  T
C162        N166   1.157       .  T
C163        N168   1.157       .  T
C164        N167   1.157       .  T
C173        C174   1.414       .  A
C173        C178   1.402       .  A
C173        C187   1.444       .  S
C174        C179   1.490       .  S
C174        C663   1.405   1_455  A
C175        C176   1.401       .  A
C175        C662   1.405       .  A
C175        H194   1.085       .  S
C176        C665   1.408       .  A
C176        C188   1.443       .  S
C177        C178   1.401       .  A
C177        C664   1.408   1_455  A
C178        H193   1.083       .  S
C179        C184   1.413       .  A
C179        C668   1.404   1_455  A
C180        C181   1.403       .  A
C180        C667   1.404       .  A
C180        H195   1.085       .  S
C181        C182   1.414       .  A
C181        C185   1.444       .  S
C182        C671   1.404       .  A
C183        C184   1.401       .  A
C183        C670   1.404       .  A
C183        H196   1.085       .  S
C184        C186   1.444       .  S
C185        N189   1.157       .  T
C186        N190   1.157       .  T
C187        N192   1.157       .  T
C188        N435   1.157       .  T
N191        C432   1.157       .  T
C197        C202   1.402       .  A
C197        C686   1.412       .  A
C197        C211   1.444       .  S
C198        C203   1.491       .  S
C198        C199   1.404       .  A
C198        C685   1.412   1_655  A
C199        C200   1.405       .  A
C199        H218   1.085       .  S
C200        C201   1.416       .  A
C200        C212   1.444       .  S
C201        C690   1.406   1_655  A
C202        C689   1.406       .  A
C202        H217   1.085       .  S
C203        C208   1.408   1_655  A
C203        C692   1.399       .  A
C204        C205   1.403       .  A
C204        C691   1.399       .  A
C204        H219   1.085       .  S
C205        C694   1.425       .  A
C205        C209   1.445       .  S
C206        C207   1.414       .  A
C206        C693   1.425   1_455  A
C207        C208   1.404       .  A
C207        H220   1.076       .  S
C208        C210   1.445       .  S
C209        N213   1.157       .  T
C210        N214   1.157       .  T
C211        N216   1.157       .  T
C212        N215   1.157       .  T
C221        C222   1.409   1_455  A
C221        C226   1.400       .  A
C221        C235   1.444       .  S
C222        C715   1.488       .  S
C222        C711   1.402       .  A
C223        C224   1.403       .  A
C223        C710   1.402       .  A
C223        H242   1.085       .  S
C224        C225   1.420       .  A
C224        C236   1.444       .  S
C225        C499   1.494       .  S
C225        C714   1.409       .  A
C226        C713   1.409   1_455  A
C226        H241   1.084       .  S
C227        C710   1.488       .  S
C227        C232   1.407       .  A
C227        C716   1.401       .  A
C228        C229   1.404       .  A
C228        C715   1.401   1_455  A
C228        H243   1.085       .  S
C229        C718   1.419   1_455  A
C229        C233   1.440       .  S
C230        C231   1.412       .  A
C230        C717   1.419       .  A
C231        C232   1.399       .  A
C231        H244   1.084       .  S
C232        C234   1.444       .  S
C233        N237   1.157       .  T
C234        N238   1.157       .  T
C235        N240   1.157       .  T
C236        N239   1.157       .  T
O245       Ni253   1.921       .  S
O245        C743   1.282       .  A
O246       Ni253   1.918       .  S
O246        C256   1.281       .  A
O247       Ni253   1.921       .  S
O247        C257   1.282       .  A
O248       Ni253   1.924       .  S
O248        C746   1.282       .  A
O249       Ni254   1.919       .  S
O249        C258   1.282   1_455  A
O250       Ni254   1.920       .  S
O250        C745   1.282   1_455  A
O251       Ni254   1.915       .  S
O251        C744   1.281       .  A
O252       Ni254   1.917       .  S
O252        C255   1.282   1_455  A
Ni253      Ni742   2.385       .  S
Ni254      Ni741   2.385   1_455  S
C255        O733   1.282       .  A
C255        C957   1.494       .  S
C256        O739   1.281       .  A
C256        C397   1.482       .  S
C257        O738   1.282       .  A
C257        C426   1.484       .  S
C258        O736   1.282       .  A
C258        C445   1.488       .  S
C259        C260   1.540       .  S
C259        C751   1.545       .  S
C259        C402   1.544       .  S
C260        H267   1.086       .  S
C261        C262   1.540       .  S
C261        C378   1.490       .  S
C262        C754   1.533       .  S
C262        C752   1.534       .  S
C262        H268   1.110       .  S
C263        C747   1.545       .  S
C263        H269   1.079       .  S
C264        C750   1.534       .  S
C264        C349   1.483       .  S
C265        H270   1.086       .  S
C265        C754   1.364       .  D
C266        C750   1.533       .  S
C266        C753   1.364       .  D
C266        C421   1.478       .  S
C271        C272   1.541       .  S
C271        C763   1.539   1_455  S
C271        C450   1.546       .  S
C272        H279   1.081       .  S
C273        C274   1.545       .  S
C273        C301   1.483       .  S
C274        C766   1.546       .  S
C274        C764   1.541   1_455  S
C274        H280   1.104       .  S
C275        C759   1.539       .  S
C275        H281   1.086       .  S
C276        C762   1.541       .  S
C276        C325   1.496       .  S
C277        H282   1.086       .  S
C277        C766   1.369       .  D
C278        C762   1.546       .  S
C278        C765   1.369       .  D
C278        C474   1.505       .  S
O283       Ni291   1.925   1_556  S
O283        C293   1.284       .  A
O284       Ni291   1.919       .  S
O284        C294   1.281       .  A
O285       Ni291   1.929       .  S
O285        C295   1.284       .  A
O286       Ni291   1.926   1_556  S
O286        C296   1.283       .  A
O287       Ni292   1.908   1_556  S
O288       Ni292   1.904       .  S
O289       Ni292   1.911   1_545  S
O290       Ni292   1.914   1_556  S
C293        C330   1.497       .  S
C294        C354   1.474       .  S
C295        C373   1.491       .  S
C296        C306   1.483       .  S
C297        C302   1.402       .  A
C297        C311   1.443       .  S
C298        C303   1.485       .  S
C298        C299   1.403       .  A
C299        C300   1.400       .  A
C299        H318   1.085       .  S
C300        C301   1.413       .  A
C300        C312   1.444       .  S
C302        H317   1.081       .  S
C303        C304   1.404       .  A
C304        C305   1.405       .  A
C304        H319   1.085       .  S
C305        C306   1.416       .  A
C305        C309   1.444       .  S
C307        C308   1.397       .  A
C307        H320   1.085       .  S
C308        C310   1.444       .  S
C309        N313   1.157       .  T
C310        N314   1.157       .  T
C311        N316   1.157       .  T
C312        N803   1.157       .  T
N315        C800   1.157       .  T
C321        C326   1.400       .  A
C321        C335   1.443   1_545  S
C322        C327   1.487       .  S
C322        C323   1.401       .  A
C323        C324   1.403       .  A
C323        H342   1.085       .  S
C324        C325   1.419       .  A
C324        C336   1.442       .  S
C326        H341   1.085   1_545  S
C327        C332   1.408       .  A
C328        C329   1.400       .  A
C328        H343   1.085       .  S
C329        C333   1.444       .  S
C330        C331   1.411       .  A
C331        C332   1.404       .  A
C331        H344   1.084       .  S
C332        C334   1.444       .  S
C333        N337   1.157       .  T
C334        N338   1.157       .  T
C335        N340   1.157       .  T
C336        N827   1.157       .  T
N339        C824   1.157   1_455  T
C345        C346   1.410       .  A
C345        C350   1.402       .  A
C345        C359   1.443       .  S
C346        C351   1.481       .  S
C346        C347   1.401       .  A
C348        C360   1.445       .  S
C349        C350   1.403       .  A
C350        H365   1.083       .  S
C351        C356   1.410       .  A
C352        C353   1.397       .  A
C352        H367   1.085   1_545  S
C353        C357   1.445   1_545  S
C354        C355   1.404       .  A
C355        C356   1.402       .  A
C355        H368   1.085       .  S
C356        C358   1.444       .  S
C357        N361   1.157       .  T
C358        N362   1.157       .  T
C359        N364   1.157       .  T
C360        N851   1.157       .  T
N363        C848   1.157       .  T
C369        C370   1.406       .  A
C369        C374   1.396       .  A
C370        C375   1.480       .  S
C370        C371   1.401       .  A
C371        C372   1.404       .  A
C371        H390   1.085       .  S
C372        C373   1.419       .  A
C372        C384   1.443       .  S
C373        C374   1.409       .  A
C374        H389   1.084       .  S
C375        C376   1.399       .  A
C376        C377   1.400       .  A
C376        H391   1.085       .  S
C377        C378   1.416       .  A
C377        C381   1.442       .  S
C379        C380   1.400   1_565  A
C379        H392   1.084       .  S
C380        C382   1.444   1_545  S
C381        N385   1.157       .  T
C382        N386   1.157       .  T
C383        N388   1.157       .  T
C384        N387   1.157       .  T
C393        C394   1.411       .  A
C393        C398   1.402       .  A
C393        C407   1.444       .  S
C394        C887   1.487       .  S
C394        C883   1.403       .  A
C395        C882   1.403       .  A
C395        C396   1.399       .  A
C395        H414   1.085       .  S
C396        C885   1.414       .  A
C396        C408   1.444       .  S
C397        C884   1.414       .  A
C397        C398   1.406       .  A
C398        H413   1.085       .  S
C399        C882   1.487       .  S
C399        C888   1.399   1_455  A
C399        C404   1.406       .  A
C400        C887   1.399       .  A
C400        C401   1.401       .  A
C400        H415   1.085       .  S
C401        C402   1.423       .  A
C401        C405   1.444       .  S
C402        C891   1.416       .  A
C403        C890   1.416       .  A
C403        C404   1.401       .  A
C403        H416   1.074       .  S
C404        C406   1.445       .  S
C405        N409   1.157       .  T
C406        N410   1.157       .  T
C407        N412   1.157       .  T
C408        N411   1.157       .  T
C417        C418   1.414       .  A
C417        C422   1.402       .  A
C417        C431   1.444       .  S
C418        C423   1.490       .  S
C418        C907   1.405   1_455  A
C419        C906   1.405       .  A
C419        C420   1.401       .  A
C419        H438   1.085       .  S
C420        C909   1.408       .  A
C420        C432   1.443       .  S
C421        C908   1.408   1_455  A
C421        C422   1.401       .  A
C422        H437   1.083       .  S
C423        C912   1.404   1_455  A
C423        C428   1.413       .  A
C424        C911   1.404       .  A
C424        C425   1.403       .  A
C424        H439   1.085       .  S
C425        C426   1.414       .  A
C425        C429   1.444       .  S
C426        C915   1.404       .  A
C427        C914   1.404       .  A
C427        C428   1.401       .  A
C427        H440   1.085       .  S
C428        C430   1.444       .  S
C429        N433   1.157       .  T
C430        N434   1.157       .  T
C431        N436   1.157       .  T
C441        C930   1.412       .  A
C441        C446   1.402       .  A
C441        C455   1.444       .  S
C442        C447   1.491       .  S
C442        C929   1.412   1_655  A
C442        C443   1.404       .  A
C443        C444   1.405       .  A
C443        H462   1.085       .  S
C444        C445   1.416       .  A
C444        C456   1.444       .  S
C445        C934   1.406   1_655  A
C446        C933   1.406       .  A
C446        H461   1.085       .  S
C447        C936   1.399       .  A
C447        C452   1.408   1_655  A
C448        C935   1.399       .  A
C448        C449   1.403       .  A
C448        H463   1.085       .  S
C449        C938   1.425       .  A
C449        C453   1.445       .  S
C450        C937   1.425   1_455  A
C450        C451   1.414       .  A
C451        C452   1.404       .  A
C451        H464   1.076       .  S
C452        C454   1.445       .  S
C453        N457   1.157       .  T
C454        N458   1.157       .  T
C455        N460   1.157       .  T
C456        N459   1.157       .  T
C465        C466   1.409   1_455  A
C465        C470   1.400       .  A
C465        C479   1.444       .  S
C466        C959   1.488       .  S
C466        C955   1.402       .  A
C467        C954   1.402       .  A
C467        C468   1.403       .  A
C467        H486   1.085       .  S
C468        C469   1.420       .  A
C468        C480   1.444       .  S
C469        C743   1.494       .  S
C469        C958   1.409       .  A
C470        C957   1.409   1_455  A
C470        H485   1.084       .  S
C471        C954   1.488       .  S
C471        C960   1.401       .  A
C471        C476   1.407       .  A
C472        C959   1.401   1_455  A
C472        C473   1.404       .  A
C472        H487   1.085       .  S
C473        C962   1.419   1_455  A
C473        C477   1.440       .  S
C474        C961   1.419       .  A
C474        C475   1.412       .  A
C475        C476   1.399       .  A
C475        H488   1.084       .  S
C476        C478   1.444       .  S
C477        N481   1.157       .  T
C478        N482   1.157       .  T
C479        N484   1.157       .  T
C480        N483   1.157       .  T
O489       Ni497   1.921       .  S
O490       Ni497   1.918       .  S
O490        C500   1.281   1_655  A
O491       Ni497   1.921       .  S
O491        C501   1.282       .  A
O492       Ni497   1.924       .  S
O493       Ni498   1.919       .  S
O493        C502   1.282       .  A
O494       Ni498   1.920       .  S
O495       Ni498   1.915       .  S
O496       Ni498   1.917       .  S
O496        C499   1.282       .  A
C500        C641   1.482       .  S
C501        C670   1.484   1_655  S
C502        C689   1.488       .  S
C503        C504   1.540   1_455  S
C503        C753   1.537       .  S
C503        C646   1.544       .  S
C504        H511   1.086       .  S
C504        C749   1.370       .  D
C505        C506   1.540   1_665  S
C505        C748   1.370       .  D
C505        C622   1.490   1_565  S
C506        H512   1.110       .  S
C507        H513   1.079       .  S
C507        C752   1.364       .  D
C508        C751   1.364       .  D
C508        C593   1.483   1_565  S
C509        C747   1.537       .  S
C509        H514   1.086       .  S
C510        C665   1.478       .  S
C515        C516   1.541       .  S
C515        C765   1.533       .  S
C515        C694   1.546       .  S
C516        H523   1.081       .  S
C516        C761   1.365       .  D
C517        C518   1.545   1_565  S
C517        C760   1.365       .  D
C517        C545   1.483   1_565  S
C518        H524   1.104       .  S
C519        H525   1.086       .  S
C519        C764   1.370       .  D
C520        C763   1.370       .  D
C520        C569   1.496   1_565  S
C521        C759   1.533       .  S
C521        H526   1.086       .  S
C522        C718   1.505   1_455  S
O527       Ni535   1.925   1_556  S
O527        C537   1.284       .  A
O528       Ni535   1.919       .  S
O528        C538   1.281       .  A
O529       Ni535   1.929       .  S
O529        C539   1.284       .  A
O530       Ni535   1.926   1_556  S
O530        C540   1.283       .  A
O531       Ni536   1.908   1_556  S
O531        C784   1.280       .  A
O532       Ni536   1.904       .  S
O532        C783   1.280       .  A
O533       Ni536   1.911       .  S
O533        C782   1.280       .  A
O534       Ni536   1.914   1_556  S
O534        C781   1.280       .  A
Ni535      Ni780   2.384   1_545  S
Ni536      Ni779   2.384       .  S
C537        O778   1.280   1_545  A
C537        C574   1.497       .  S
C538        O777   1.280       .  A
C538        C598   1.474       .  S
C539        O776   1.280   1_545  A
C539        C617   1.491       .  S
C540        O775   1.280   1_545  A
C540        C550   1.483       .  S
C541        C786   1.410       .  A
C541        C546   1.402       .  A
C541        C555   1.443       .  S
C542        C547   1.485       .  S
C542        C785   1.410       .  A
C542        C543   1.403   1_545  A
C543        C544   1.400       .  A
C543        H562   1.085       .  S
C544        C545   1.413   1_565  A
C544        C556   1.444       .  S
C545        C790   1.400       .  A
C546        C789   1.400       .  A
C546        H561   1.081       .  S
C547        C548   1.404       .  A
C547        C796   1.409   1_545  A
C548        C549   1.405       .  A
C548        H563   1.085       .  S
C549        C550   1.416       .  A
C549        C553   1.444       .  S
C550        C795   1.405   1_545  A
C551        C794   1.405       .  A
C551        C552   1.397       .  A
C551        H564   1.085       .  S
C552        C791   1.409       .  A
C552        C554   1.444       .  S
C553        N557   1.157       .  T
C554        N558   1.157       .  T
C555        N560   1.157       .  T
C565        C810   1.408       .  A
C565        C570   1.401       .  A
C565        C579   1.443       .  S
C566        C571   1.487       .  S
C566        C809   1.408       .  A
C566        C567   1.401       .  A
C567        C568   1.403       .  A
C567        H586   1.085       .  S
C568        C569   1.419       .  A
C568        C580   1.442       .  S
C569        C814   1.408       .  A
C570        C813   1.408       .  A
C570        H585   1.085       .  S
C571        C816   1.400   1_545  A
C571        C576   1.408       .  A
C572        C815   1.400       .  A
C572        C573   1.400       .  A
C572        H587   1.085       .  S
C573        C818   1.421       .  A
C573        C577   1.444       .  S
C574        C817   1.421   1_545  A
C574        C575   1.411       .  A
C575        C576   1.404       .  A
C575        H588   1.084       .  S
C576        C578   1.444       .  S
C577        N581   1.157       .  T
C578        N582   1.157       .  T
C579        N584   1.157       .  T
C589        C590   1.410       .  A
C589        C594   1.402       .  A
C589        C603   1.443       .  S
C590        C595   1.481       .  S
C590        C591   1.401   1_545  A
C591        C836   1.396       .  A
C591        H854   1.085       .  S
C592        C835   1.396       .  A
C592        C837   1.414       .  A
C592        C604   1.445       .  S
C593        C836   1.414   1_545  A
C593        C594   1.403       .  A
C594        H609   1.083       .  S
C595        C840   1.402       .  A
C595        C600   1.410       .  A
C596        C839   1.402       .  A
C596        C597   1.397       .  A
C596        H611   1.085       .  S
C597        C842   1.411       .  A
C597        C601   1.445       .  S
C598        C841   1.411       .  A
C598        C599   1.404       .  A
C599        C600   1.402       .  A
C599        H612   1.085       .  S
C600        C602   1.444       .  S
C601        N605   1.157       .  T
C602        N606   1.157       .  T
C603        N608   1.157       .  T
H610        C835   1.085       .  S
C613        C614   1.406   1_565  A
C613        C618   1.396       .  A
C613        C871   1.445       .  S
C614        C619   1.480       .  S
C614        C615   1.401       .  A
C615        C616   1.404       .  A
C615        H634   1.085       .  S
C616        C617   1.419       .  A
C616        C628   1.443       .  S
C617        C618   1.409   1_545  A
C618        H633   1.084       .  S
C619        C620   1.399       .  A
C619        C868   1.408       .  A
C620        C621   1.400       .  A
C620        H635   1.085       .  S
C621        C622   1.416       .  A
C621        C625   1.442       .  S
C622        C867   1.408   1_545  A
C623        C866   1.408       .  A
C623        C624   1.400       .  A
C623        H636   1.084       .  S
C624        C863   1.408       .  A
C624        C626   1.444       .  S
C625        N629   1.157   1_655  T
C626        N630   1.157       .  T
C627        C857   1.445       .  S
C627        N632   1.157       .  T
C628        N631   1.157       .  T
C637        C638   1.411   1_655  A
C637        C642   1.402       .  A
C637        C651   1.444       .  S
C639        C640   1.399       .  A
C639        H658   1.085       .  S
C640        C652   1.444       .  S
C641        C642   1.406   1_455  A
C642        H657   1.085       .  S
C643        C648   1.406       .  A
C644        C645   1.401       .  A
C644        H659   1.085       .  S
C645        C646   1.423   1_655  A
C645        C649   1.444       .  S
C647        C648   1.401       .  A
C647        H660   1.074       .  S
C648        C650   1.445       .  S
C649        N653   1.157       .  T
C650        N654   1.157       .  T
C651        N656   1.157       .  T
C652        N655   1.157       .  T
C661        C662   1.414       .  A
C661        C666   1.402       .  A
C661        C675   1.444       .  S
C662        C667   1.490       .  S
C663        C664   1.401       .  A
C663        H682   1.085       .  S
C664        C676   1.443       .  S
C665        C666   1.401       .  A
C666        H681   1.083       .  S
C667        C672   1.413       .  A
C668        C669   1.403       .  A
C668        H683   1.085       .  S
C669        C670   1.414   1_655  A
C669        C673   1.444       .  S
C671        C672   1.401       .  A
C671        H684   1.085       .  S
C672        C674   1.444       .  S
C673        N677   1.157       .  T
C674        N678   1.157       .  T
C675        N680   1.157       .  T
C676        N923   1.157       .  T
N679        C920   1.157       .  T
C685        C690   1.402       .  A
C685        C699   1.444       .  S
C686        C691   1.491       .  S
C686        C687   1.404       .  A
C687        C688   1.405       .  A
C687        H706   1.085       .  S
C688        C689   1.416       .  A
C688        C700   1.444       .  S
C690        H705   1.085       .  S
C691        C696   1.408       .  A
C692        C693   1.403       .  A
C692        H707   1.085       .  S
C693        C697   1.445       .  S
C694        C695   1.414       .  A
C695        C696   1.404       .  A
C695        H708   1.076       .  S
C696        C698   1.445       .  S
C697        N701   1.157       .  T
C698        N702   1.157       .  T
C699        N704   1.157       .  T
C700        N703   1.157       .  T
C709        C710   1.409       .  A
C709        C714   1.400       .  A
C709        C723   1.444       .  S
C711        C712   1.403       .  A
C711        H730   1.085       .  S
C712        C713   1.420       .  A
C712        C724   1.444       .  S
C714        H729   1.084       .  S
C715        C720   1.407       .  A
C716        C717   1.404       .  A
C716        H731   1.085       .  S
C717        C721   1.440       .  S
C718        C719   1.412       .  A
C719        C720   1.399       .  A
C719        H732   1.084       .  S
C720        C722   1.444       .  S
C721        N725   1.157       .  T
C722        N726   1.157       .  T
C723        N728   1.157       .  T
C724        N727   1.157       .  T
O733       Ni741   1.921       .  S
O734       Ni741   1.918       .  S
O734        C744   1.281   1_655  A
O735       Ni741   1.921       .  S
O735        C745   1.282       .  A
O736       Ni741   1.924       .  S
O737       Ni742   1.919       .  S
O737        C746   1.282       .  A
O738       Ni742   1.920       .  S
O739       Ni742   1.915       .  S
O740       Ni742   1.917       .  S
O740        C743   1.282       .  A
C744        C885   1.482       .  S
C745        C914   1.484   1_655  S
C746        C933   1.488       .  S
C747        C748   1.540   1_455  S
C747        C890   1.544       .  S
C748        H755   1.086       .  S
C749        C750   1.540   1_655  S
C749        C866   1.490       .  S
C750        H756   1.110       .  S
C751        H757   1.079       .  S
C752        C837   1.483       .  S
C753        H758   1.086       .  S
C754        C909   1.478       .  S
C759        C760   1.541       .  S
C759        C938   1.546       .  S
C760        H767   1.081       .  S
C761        C762   1.545       .  S
C761        C789   1.483       .  S
C762        H768   1.104       .  S
C763        H769   1.086       .  S
C764        C813   1.496       .  S
C765        H770   1.086       .  S
C766        C962   1.505   1_455  S
O771       Ni779   1.925   1_556  S
O771        C781   1.284       .  A
O772       Ni779   1.919       .  S
O772        C782   1.281       .  A
O773       Ni779   1.929       .  S
O773        C783   1.284       .  A
O774       Ni779   1.926   1_556  S
O774        C784   1.283       .  A
O775       Ni780   1.908   1_556  S
O776       Ni780   1.904       .  S
O777       Ni780   1.911   1_545  S
O778       Ni780   1.914   1_556  S
C781        C818   1.497       .  S
C782        C842   1.474       .  S
C783        C861   1.491       .  S
C784        C794   1.483       .  S
C785        C790   1.402       .  A
C785        C799   1.443       .  S
C786        C791   1.485       .  S
C786        C787   1.403       .  A
C787        C788   1.400       .  A
C787        H806   1.085       .  S
C788        C789   1.413       .  A
C788        C800   1.444       .  S
C790        H805   1.081       .  S
C791        C792   1.404       .  A
C792        C793   1.405       .  A
C792        H807   1.085       .  S
C793        C794   1.416       .  A
C793        C797   1.444       .  S
C795        C796   1.397       .  A
C795        H808   1.085       .  S
C796        C798   1.444       .  S
C797        N801   1.157       .  T
C798        N802   1.157       .  T
C799        N804   1.157       .  T
C809        C814   1.400       .  A
C809        C823   1.443   1_545  S
C810        C815   1.487       .  S
C810        C811   1.401       .  A
C811        C812   1.403       .  A
C811        H830   1.085       .  S
C812        C813   1.419       .  A
C812        C824   1.442       .  S
C814        H829   1.085   1_545  S
C815        C820   1.408       .  A
C816        C817   1.400       .  A
C816        H831   1.085       .  S
C817        C821   1.444       .  S
C818        C819   1.411       .  A
C819        C820   1.404       .  A
C819        H832   1.084       .  S
C820        C822   1.444       .  S
C821        N825   1.157       .  T
C822        N826   1.157       .  T
C823        N828   1.157       .  T
C833        C834   1.410       .  A
C833        C838   1.402       .  A
C833        C847   1.443       .  S
C834        C839   1.481       .  S
C834        C835   1.401       .  A
C836        C848   1.445       .  S
C837        C838   1.403       .  A
C838        H853   1.083       .  S
C839        C844   1.410       .  A
C840        C841   1.397       .  A
C840        H855   1.085   1_545  S
C841        C845   1.445   1_545  S
C842        C843   1.404       .  A
C843        C844   1.402       .  A
C843        H856   1.085       .  S
C844        C846   1.444       .  S
C845        N849   1.157       .  T
C846        N850   1.157       .  T
C847        N852   1.157       .  T
C857        C858   1.406       .  A
C857        C862   1.396       .  A
C858        C863   1.480       .  S
C858        C859   1.401       .  A
C859        C860   1.404       .  A
C859        H878   1.085       .  S
C860        C861   1.419       .  A
C860        C872   1.443       .  S
C861        C862   1.409       .  A
C862        H877   1.084       .  S
C863        C864   1.399       .  A
C864        C865   1.400       .  A
C864        H879   1.085       .  S
C865        C866   1.416       .  A
C865        C869   1.442       .  S
C867        C868   1.400   1_565  A
C867        H880   1.084       .  S
C868        C870   1.444   1_545  S
C869        N873   1.157   1_655  T
C870        N874   1.157       .  T
C871        N876   1.157       .  T
C872        N875   1.157       .  T
C881        C882   1.411   1_655  A
C881        C886   1.402       .  A
C881        C895   1.444       .  S
C883        C884   1.399       .  A
C883        H902   1.085       .  S
C884        C896   1.444       .  S
C885        C886   1.406   1_455  A
C886        H901   1.085       .  S
C887        C892   1.406       .  A
C888        C889   1.401       .  A
C888        H903   1.085       .  S
C889        C890   1.423   1_655  A
C889        C893   1.444       .  S
C891        C892   1.401       .  A
C891        H904   1.074       .  S
C892        C894   1.445       .  S
C893        N897   1.157       .  T
C894        N898   1.157       .  T
C895        N900   1.157       .  T
C896        N899   1.157       .  T
C905        C906   1.414       .  A
C905        C910   1.402       .  A
C905        C919   1.444       .  S
C906        C911   1.490       .  S
C907        C908   1.401       .  A
C907        H926   1.085       .  S
C908        C920   1.443       .  S
C909        C910   1.401       .  A
C910        H925   1.083       .  S
C911        C916   1.413       .  A
C912        C913   1.403       .  A
C912        H927   1.085       .  S
C913        C914   1.414   1_655  A
C913        C917   1.444       .  S
C915        C916   1.401       .  A
C915        H928   1.085       .  S
C916        C918   1.444       .  S
C917        N921   1.157       .  T
C918        N922   1.157       .  T
C919        N924   1.157       .  T
C929        C934   1.402       .  A
C929        C943   1.444       .  S
C930        C935   1.491       .  S
C930        C931   1.404       .  A
C931        C932   1.405       .  A
C931        H950   1.085       .  S
C932        C933   1.416       .  A
C932        C944   1.444       .  S
C934        H949   1.085       .  S
C935        C940   1.408       .  A
C936        C937   1.403       .  A
C936        H951   1.085       .  S
C937        C941   1.445       .  S
C938        C939   1.414       .  A
C939        C940   1.404       .  A
C939        H952   1.076       .  S
C940        C942   1.445       .  S
C941        N945   1.157       .  T
C942        N946   1.157       .  T
C943        N948   1.157       .  T
C944        N947   1.157       .  T
C953        C954   1.409       .  A
C953        C958   1.400       .  A
C953        C967   1.444       .  S
C955        C956   1.403       .  A
C955        H974   1.085       .  S
C956        C957   1.420       .  A
C956        C968   1.444       .  S
C958        H973   1.084       .  S
C959        C964   1.407       .  A
C960        C961   1.404       .  A
C960        H975   1.085       .  S
C961        C965   1.440       .  S
C962        C963   1.412       .  A
C963        C964   1.399       .  A
C963        H976   1.084       .  S
C964        C966   1.444       .  S
C965        N969   1.157       .  T
C966        N970   1.157       .  T
C967        N972   1.157       .  T
C968        N971   1.157       .  T
